37

O     -1.107836    1.129946    1.295693
C     -0.767692    0.393870    0.374923
C      0.665012    0.109664    0.084204
O      1.028687   -0.777916   -0.942180
C      1.598200    0.740847    0.820160
C      3.054912    0.607485    0.665127
C      3.685025   -0.639940    0.535680
C      5.070844   -0.701148    0.419784
O      5.733211   -1.890019    0.278608
C      5.834089    0.462278    0.448686
O      7.192547    0.390639    0.337130
C      5.231227    1.700962    0.593990
C      3.840411    1.772269    0.707277
C     -1.762388   -0.267106   -0.514825
C     -3.207774   -0.010359   -0.317230
C     -3.992062    0.532466   -1.347218
C     -5.352659    0.779142   -1.149708
C     -5.933831    0.490721    0.078180
O     -7.263429    0.750582    0.228482
C     -5.177387   -0.042641    1.115490
C     -3.816104   -0.292059    0.916197
C     -1.330464   -1.106716   -1.470672
O     -2.221397   -1.778166   -2.308286
C      0.101404   -1.402487   -1.699343
O      0.398536   -2.212435   -2.575234
H      1.292515    1.447604    1.591983
H      3.097259   -1.552048    0.533945
H      5.073149   -2.602993    0.231216
H      7.381259   -0.564975    0.249665
H      5.835713    2.602466    0.620129
H      3.375047    2.749390    0.822574
H     -3.553492    0.765037   -2.314799
H     -5.955113    1.196176   -1.951632
H     -7.522667    0.523223    1.136371
H     -5.621217   -0.265570    2.080452
H     -3.232158   -0.699256    1.739060
H     -1.671376   -2.338935   -2.897550
