59
 xtb: 6.6.1 (8d0f1dd)
C      3.894700   -2.974600   -0.104700
C      4.820300   -1.810200   -0.298700
C      4.429600   -0.553300   -0.474500
C      3.012400   -0.059300   -0.497900
C      2.518500    0.230800    0.926300
C      0.997700    0.414800    1.030100
C      0.448000    1.537900    0.130100
C      1.027400    2.907800    0.478900
C      0.205900    4.011400   -0.173400
C     -1.204300    4.020400    0.422800
C     -1.784300    2.629200    0.388900
C     -1.061200    1.520200    0.212600
C     -1.640300    0.185000    0.053600
C     -0.819100   -0.901100    0.207700
O      0.449900   -0.846100    0.597200
C     -1.253900   -2.295400   -0.036800
O     -0.435200   -3.222500    0.047500
C     -2.648700   -2.495500   -0.337200
C     -3.520000   -1.397300   -0.473900
C     -3.023900   -0.001000   -0.369300
O     -3.770100    0.931800   -0.656400
C     -4.855000   -1.594800   -0.746100
C     -5.373100   -2.894400   -0.884800
C     -4.525900   -3.982300   -0.759400
C     -3.166600   -3.801800   -0.495300
O     -2.405800   -4.888900   -0.398200
O     -6.679200   -3.015000   -1.140000
C     -2.120800    4.961700   -0.367200
O     -1.079400    4.471700    1.771800
C      0.601200    0.603200    2.499300
C      6.275300   -2.179600   -0.283600
H      4.026100   -3.691900   -0.914800
H      4.139000   -3.485200    0.826200
H      2.850200   -2.681800   -0.067500
H      5.184500    0.214200   -0.585000
H      2.359300   -0.806600   -0.951700
H      2.963500    0.848100   -1.101600
H      2.781000   -0.619600    1.557700
H      3.015400    1.114500    1.322200
H      0.715500    1.288000   -0.905000
H      2.062400    2.967500    0.144300
H      0.996300    3.068100    1.555500
H      0.668600    4.980200    0.014800
H      0.137900    3.852300   -1.249800
H     -2.856600    2.566800    0.494800
H     -5.511400   -0.746300   -0.856200
H     -4.884100   -4.994400   -0.865200
H     -1.470100   -4.623400   -0.215100
H     -6.949900   -3.944900   -1.226300
H     -1.709000    5.967800   -0.357600
H     -2.207700    4.619400   -1.394500
H     -3.115700    4.981700    0.072600
H     -1.960200    4.541800    2.162500
H      0.782000   -0.325500    3.035300
H      1.193200    1.388400    2.956200
H     -0.452400    0.858900    2.584000
H      6.483200   -2.916800   -1.057900
H      6.904900   -1.309900   -0.450500
H      6.540000   -2.624300    0.674700
