33

C     -2.948275   -2.321779    1.142739
C     -1.621498   -1.776172    0.677216
C     -0.604434   -2.709156    0.441031
C      0.649977   -2.294749    0.009663
O      1.617931   -3.248649   -0.209700
C      0.959611   -0.934486   -0.208147
C      2.237759   -0.480999   -0.648670
C      2.540120    0.871647   -0.849432
C      1.524663    1.801095   -0.639487
C      0.251913    1.386232   -0.204138
C     -0.062961    0.022914    0.025253
C     -1.361615   -0.397707    0.471051
C     -2.377894    0.664658    0.692197
C     -2.119431    1.959002    0.483523
C     -0.792919    2.406100    0.018721
O     -0.597021    3.606537   -0.166480
O     -3.096553    2.921100    0.699713
O     -3.636400    0.294774    1.129731
O      1.822344    3.120361   -0.878894
C      3.897483    1.294629   -1.341453
O      3.252448   -1.375520   -0.906148
H     -3.737024   -2.084903    0.422019
H     -3.198059   -1.933689    2.135034
H     -2.926408   -3.414010    1.232217
H     -0.803944   -3.766519    0.598099
H      1.244129   -4.125828   -0.009302
H     -2.659910    3.772237    0.476159
H     -4.145297    1.127657    1.210813
H      1.030903    3.670024   -0.689848
H      4.141274    2.316365   -1.033057
H      3.930952    1.239952   -2.433993
H      4.687262    0.658241   -0.928721
H      2.900872   -2.269359   -0.717709
