70

C      9.243726   -0.314088   -0.748974
C      7.840640   -0.737854   -0.337722
C      7.080211    0.424856    0.300923
C      5.631938    0.015837    0.584256
C      4.814322    1.180818    1.126330
C      3.332337    1.118806    0.981668
C      2.546354    2.138892    1.534203
C      1.142518    2.102648    1.458486
C      0.528632    0.997428    0.821296
C      1.347762    0.000044    0.281407
C      2.740038    0.030875    0.336007
C      3.580012   -1.026014   -0.246028
C      4.970082   -0.563292   -0.673420
C      5.840422   -1.710987   -1.234042
O      7.157064   -1.185719   -1.513221
C      5.337078   -2.282241   -2.560168
O      4.858242    0.478876   -1.653797
O      3.189118   -2.184245   -0.296893
O      0.586599   -0.970099   -0.302658
C     -0.706813   -0.613789   -0.129825
C     -0.809419    0.578187    0.544914
C     -2.112888    1.136782    0.821116
O     -2.293835    2.204503    1.396180
C     -3.302912    0.345156    0.364177
C     -3.147899   -0.881236   -0.314335
C     -1.788097   -1.419603   -0.611989
O     -1.675574   -2.477557   -1.223956
C     -4.283970   -1.611313   -0.693000
O     -4.202349   -2.821167   -1.334505
C     -5.572099   -1.129318   -0.416503
C     -5.743646    0.131605    0.192525
C     -4.600405    0.832428    0.618965
O     -4.812378    1.991584    1.322838
C     -7.149358    0.684984    0.428313
O     -8.209728   -0.153652   -0.072174
C     -7.963734   -1.544943    0.115261
C     -6.792806   -1.943508   -0.780030
C     -9.228661   -2.299347   -0.270274
C     -7.383547    2.033838   -0.256211
O      0.324482    3.057014    1.994016
C      0.900940    4.322256    2.296228
O      5.323020    2.114789    1.739754
H      9.825352    0.027348    0.112709
H      9.772823   -1.150714   -1.218748
H      9.208657    0.491266   -1.491432
H      7.918574   -1.575863    0.366184
H      7.089015    1.293960   -0.370181
H      7.577454    0.737066    1.227350
H      5.640914   -0.743383    1.380396
H      3.050404    2.958277    2.042372
H      5.930382   -2.531319   -0.510234
H      6.024052   -3.059036   -2.914963
H      5.310173   -1.519228   -3.345280
H      4.342825   -2.726319   -2.471296
H      5.644528    0.408718   -2.233304
H     -3.259690   -3.048187   -1.502888
H     -3.950498    2.413385    1.544967
H     -7.307439    0.784533    1.509111
H     -7.745261   -1.736210    1.174082
H     -7.024791   -1.746938   -1.834212
H     -6.598019   -3.014772   -0.655590
H     -9.510307   -2.093175   -1.309135
H    -10.069032   -1.974769    0.352447
H     -9.099977   -3.378491   -0.147004
H     -7.223667    1.950501   -1.338147
H     -8.422240    2.355532   -0.117553
H     -6.736647    2.828883    0.120581
H      0.085553    5.011090    2.537282
H      1.549818    4.253528    3.175079
H      1.441629    4.732084    1.436270
