33

C     -6.271248    0.817574   -0.869177
C     -4.771327    0.908824   -0.760291
O     -4.162861    1.918477   -1.094476
N     -4.209087   -0.247597   -0.261597
C     -2.875122   -0.527591   -0.026825
C     -1.844602    0.296791   -0.244583
C     -0.444826   -0.094936    0.039666
N      0.511411    0.749725   -0.191997
C      1.814687    0.315604    0.100668
C      2.083734   -0.960202    0.612419
C      3.390827   -1.360599    0.886470
C      4.446679   -0.479420    0.651143
C      4.200603    0.806079    0.147259
C      2.879678    1.189546   -0.130414
C      5.345322    1.744729   -0.121779
O      6.066114    1.325783   -1.272307
O      1.083527   -1.870311    0.863775
C     -0.213251   -1.462918    0.585371
C     -1.235287   -2.291801    0.805683
C     -2.620815   -1.894955    0.522097
O     -3.552031   -2.668961    0.730577
H     -6.674992    1.770536   -1.222216
H     -6.702758    0.591454    0.110053
H     -6.542535    0.030783   -1.578664
H     -4.837941   -1.015733   -0.026492
H     -1.963063    1.298949   -0.640069
H      3.588406   -2.353973    1.279390
H      5.467281   -0.797116    0.859016
H      2.664634    2.178064   -0.531201
H      6.028747    1.773312    0.733220
H      4.988518    2.765650   -0.292982
H      5.449133    0.833057   -1.840422
H     -1.087556   -3.288823    1.201405
