33
 xtb: 6.6.1 (8d0f1dd)
C     -6.285300    0.776600   -0.755400
C     -4.788500    0.887000   -0.685700
O     -4.164800    1.883000   -1.007300
N     -4.190900   -0.252300   -0.222700
C     -2.858400   -0.520000   -0.023700
C     -1.827100    0.331600   -0.255300
C     -0.485500   -0.065700   -0.003500
N      0.497700    0.764600   -0.230300
C      1.765500    0.351300    0.027100
C      2.025900   -0.945900    0.525700
C      3.329400   -1.355100    0.788300
C      4.365700   -0.478100    0.558600
C      4.132300    0.810800    0.058800
C      2.843700    1.218300   -0.205700
C      5.302500    1.740300   -0.161700
O      6.478100    1.080100   -0.571600
O      1.007200   -1.811500    0.756600
C     -0.255500   -1.412200    0.508800
C     -1.282900   -2.274300    0.741100
C     -2.634200   -1.894200    0.495300
O     -3.610300   -2.636900    0.689300
H     -6.698000    1.714700   -1.113400
H     -6.687200    0.553800    0.229400
H     -6.564800   -0.025400   -1.433700
H     -4.773600   -1.053400    0.027400
H     -1.996900    1.326400   -0.632300
H      3.499200   -2.348300    1.170300
H      5.383100   -0.774300    0.762200
H      2.625400    2.201400   -0.589100
H      5.557300    2.217000    0.790800
H      5.025500    2.528400   -0.871400
H      6.354200    0.728100   -1.463500
H     -1.088600   -3.265700    1.119000
