32

C     -4.674805    0.199851    2.275039
C     -3.685191    0.145430    1.153018
C     -4.056381    0.169906   -0.134755
C     -3.023283    0.112794   -1.178491
O     -3.308818    0.132108   -2.370782
C     -1.626438    0.031153   -0.734358
C     -0.562774   -0.028045   -1.644493
C      0.781981   -0.106690   -1.195932
C      1.911731   -0.169845   -2.046004
C      3.209353   -0.245895   -1.545555
C      3.431020   -0.261946   -0.172313
C      2.337874   -0.200941    0.693722
C      1.019543   -0.123718    0.201744
C     -0.063462   -0.063367    1.096107
C     -1.375421    0.013426    0.630609
O     -2.368101    0.068441    1.577701
O      4.746093   -0.338687    0.194903
C      5.032217   -0.358489    1.587118
O      1.796665   -0.159955   -3.413091
O     -0.788683   -0.011771   -3.007197
H     -4.588592   -0.696081    2.898201
H     -4.486303    1.076958    2.902420
H     -5.706296    0.260221    1.912726
H     -5.086856    0.230126   -0.460317
H      4.048909   -0.292693   -2.234015
H      2.489869   -0.212267    1.769021
H      0.110223   -0.075942    2.170747
H      4.697834    0.564663    2.071873
H      4.593767   -1.239348    2.067597
H      6.118332   -0.421422    1.704602
H      0.838748   -0.104215   -3.613462
H     -1.762756    0.044780   -3.156382
