34
 xtb: 6.6.1 (8d0f1dd)
C     -4.605400   -1.582000    0.405600
O     -3.566900   -0.610100    0.417700
C     -2.292000   -1.017400    0.225900
C     -1.316200   -0.024000    0.251900
C      0.029900   -0.338900    0.049900
C      0.405900   -1.670100   -0.166600
C     -0.570600   -2.665200   -0.186800
C     -1.896100   -2.344200    0.001900
O      1.691300   -2.032900   -0.357900
C      2.665700   -1.095000   -0.343300
C      3.967900   -1.538500   -0.539800
C      5.003600   -0.623100   -0.541500
C      4.766500    0.727600   -0.352200
C      3.472200    1.193100   -0.153200
C      2.392300    0.273600   -0.144800
C      1.032300    0.718500    0.058200
O      0.714600    1.910900    0.221800
O      3.276000    2.503900    0.025300
C     -1.712500    1.390200    0.545600
O     -1.810500    1.840300    1.667300
O     -2.038800    2.045300   -0.556500
C     -2.452800    3.406400   -0.403200
H     -4.659700   -2.082300   -0.563200
H     -4.466700   -2.312300    1.205000
H     -5.517800   -1.017100    0.579300
H     -0.266600   -3.685300   -0.353300
H     -2.630600   -3.131500   -0.021600
H      4.140400   -2.590800   -0.687300
H      6.014200   -0.965500   -0.694100
H      5.569700    1.445400   -0.354600
H      2.311900    2.675300    0.151300
H     -1.622900    3.996200   -0.012000
H     -2.736300    3.737800   -1.396800
H     -3.292000    3.461700    0.290800
