34

C     -4.627697   -1.640121    0.521929
O     -3.641994   -0.620537    0.417992
C     -2.343150   -1.003454    0.212910
C     -1.369119    0.012640    0.249057
C     -0.013094   -0.279261    0.041409
C      0.370215   -1.597398   -0.204965
C     -0.589831   -2.610460   -0.247912
C     -1.939875   -2.316607   -0.042299
O      1.664642   -2.004172   -0.417538
C      2.660187   -1.062595   -0.370421
C      3.962626   -1.526835   -0.572920
C      5.036859   -0.635140   -0.543920
C      4.810729    0.722007   -0.313332
C      3.512497    1.183177   -0.112363
C      2.434531    0.290836   -0.139922
C      1.051460    0.741843    0.065634
O      0.835897    1.934884    0.239763
O      3.363669    2.525785    0.107127
C     -1.807443    1.380781    0.548343
O     -1.963751    1.814221    1.676629
O     -2.017319    2.014967   -0.631152
C     -2.414766    3.375614   -0.473522
H     -4.743608   -2.171131   -0.428379
H     -4.397129   -2.333045    1.337866
H     -5.582967   -1.159116    0.753059
H     -0.286633   -3.637320   -0.443271
H     -2.650243   -3.136364   -0.090708
H      4.143677   -2.583721   -0.753517
H      6.050521   -0.996231   -0.700931
H      5.643219    1.420799   -0.289826
H      2.403424    2.705727    0.232762
H     -1.648210    3.941683    0.065317
H     -2.530372    3.812772   -1.469156
H     -3.376953    3.435770    0.044794
