65
 xtb: 6.6.1 (8d0f1dd)
C     -1.420400   -5.325100    1.301200
O     -0.939300   -3.992700    1.399300
C     -1.495000   -2.998500    0.645900
C     -1.155000   -1.711100    1.052000
C     -1.588700   -0.591500    0.357400
C     -1.141700    0.750000    0.702100
C      0.110400    1.064900    1.175400
O      1.042600    0.063200    1.431000
C      1.819500   -0.339000    0.337100
C      2.501600   -1.657100    0.747000
O      3.456900   -1.453800    1.754000
C      3.222800   -2.261800   -0.460900
O      3.721500   -3.543700   -0.181100
C      2.237100   -2.387600   -1.627000
O      2.863700   -2.867700   -2.785700
C      1.630100   -1.010500   -1.925600
C      0.575900   -1.084900   -3.039400
O      1.141200   -1.225900   -4.310600
O      0.983100   -0.496500   -0.779000
C      0.479500    2.418000    1.401100
C     -0.528900    3.407300    1.127600
C     -1.784700    3.022900    0.647100
C     -2.759100    3.968300    0.382900
C     -2.482300    5.319100    0.600700
C     -1.230000    5.719900    1.071000
C     -0.258500    4.769000    1.329700
O      0.951900    5.187400    1.779500
C      1.921600    4.242000    2.023300
C      3.186700    4.762600    2.476400
O      3.220300    6.097200    2.596800
O      4.164800    4.060200    2.733900
C      1.711000    2.885800    1.848900
O     -3.459800    6.199900    0.341700
O     -2.071000    1.710500    0.432800
C     -2.450400   -0.753100   -0.732200
C     -2.799800   -2.022300   -1.139800
O     -3.604800   -2.311900   -2.210400
C     -4.121800   -1.239500   -2.975600
C     -2.313100   -3.166000   -0.475000
O     -2.649300   -4.396300   -0.954600
H     -1.172200   -5.770000    0.336900
H     -0.912700   -5.862000    2.099800
H     -2.499800   -5.365700    1.454100
H     -0.538300   -1.612200    1.928200
H      2.597100    0.422700    0.112200
H      1.715800   -2.351700    1.077400
H      3.019000   -1.145900    2.559700
H      4.046700   -1.588700   -0.748400
H      4.260100   -3.499600    0.622800
H      1.428700   -3.068600   -1.314300
H      3.370500   -3.661600   -2.552500
H      2.437600   -0.331000   -2.243400
H     -0.116000   -1.907700   -2.813000
H      0.013800   -0.148500   -3.043500
H      1.769200   -1.967900   -4.287600
H     -3.727400    3.673500    0.017900
H     -0.996400    6.758200    1.240400
H      4.094700    6.397800    2.906300
H      2.527400    2.221300    2.075100
H     -3.181200    7.111500    0.528100
H     -2.797100    0.118800   -1.258200
H     -3.315600   -0.657800   -3.428200
H     -4.719200   -1.708300   -3.754000
H     -4.752700   -0.590700   -2.364400
H     -3.240500   -4.277800   -1.718000
