65

C     -0.968176   -4.973055    1.161718
O     -1.714690   -3.923397    1.778008
C     -2.050779   -2.937082    0.891643
C     -1.514441   -1.672986    1.136594
C     -1.816135   -0.582706    0.300285
C     -1.239284    0.758697    0.497173
C      0.039220    1.069048    1.010270
O      0.940172    0.076281    1.332607
C      1.749662   -0.305822    0.189781
C      2.674585   -1.451577    0.653981
O      3.622231   -0.971158    1.617435
C      3.445471   -2.025917   -0.534375
O      4.154409   -3.207166   -0.136833
C      2.492221   -2.390487   -1.673005
O      3.239586   -2.841829   -2.803399
C      1.643523   -1.162109   -2.033415
C      0.659245   -1.489174   -3.165392
O      1.329378   -1.640088   -4.408272
O      0.905374   -0.710357   -0.888923
C      0.388106    2.392885    1.287606
C     -0.522299    3.416836    1.032781
C     -1.760840    3.129888    0.451819
C     -2.683315    4.140583    0.211213
C     -2.370565    5.451066    0.553142
C     -1.145029    5.768008    1.126800
C     -0.226131    4.745481    1.361524
O      0.977010    5.094641    1.931247
C      1.896689    4.078793    2.175189
C      3.201035    4.438046    2.787598
O      3.273611    5.746291    3.078751
O      4.120032    3.671720    3.013243
C      1.669100    2.782168    1.892594
O     -3.309704    6.402659    0.299241
O     -2.089062    1.815992    0.037973
C     -2.724250   -0.794280   -0.762918
C     -3.290969   -2.049705   -0.995809
O     -4.183047   -2.359241   -1.988708
C     -4.441010   -1.362346   -2.971461
C     -2.953484   -3.115327   -0.154124
O     -3.544115   -4.334722   -0.353141
H      0.052098   -4.627134    0.960627
H     -0.912831   -5.808470    1.868398
H     -1.413059   -5.348993    0.233418
H     -0.861289   -1.565931    1.999699
H      2.350736    0.563095   -0.113012
H      2.088302   -2.245644    1.135055
H      3.361710   -1.313830    2.493045
H      4.207881   -1.319351   -0.887059
H      4.816859   -2.920648    0.522748
H      1.848183   -3.220983   -1.356463
H      3.872901   -3.504179   -2.453167
H      2.297160   -0.351319   -2.382102
H      0.091717   -2.401426   -2.949630
H     -0.073555   -0.681284   -3.273547
H      2.068286   -2.271087   -4.265695
H     -3.634654    3.896257   -0.248950
H     -0.892554    6.791686    1.397082
H      4.163179    5.867643    3.477472
H      2.413455    2.020383    2.114239
H     -2.987000    7.288995    0.546709
H     -2.981948    0.050331   -1.400450
H     -3.521348   -1.075176   -3.490889
H     -5.125701   -1.790904   -3.711663
H     -4.934710   -0.491883   -2.527226
H     -4.167154   -4.218697   -1.096788
