32

C      2.772001   -1.827117   -0.769103
C      1.815901   -1.125380   -0.016345
C      2.221005   -0.021697    0.756213
C      3.554844    0.380646    0.744193
C      4.487974   -0.311505   -0.016781
C      4.097720   -1.410685   -0.766925
O      5.017031   -2.094126   -1.508833
O      5.800330    0.075626   -0.032885
O      3.996471    1.451249    1.471576
C      0.429846   -1.612337   -0.017634
C     -0.665628   -0.843280   -0.072895
C     -2.043666   -1.398126   -0.089671
O     -2.434022   -2.544654   -0.042353
C     -2.875523   -0.212802   -0.174998
C     -4.246703   -0.092413   -0.222829
C     -4.782739    1.190036   -0.302090
C     -3.922835    2.303559   -0.330627
C     -2.532683    2.168367   -0.281487
C     -2.027478    0.889391   -0.202744
O     -0.696086    0.546889   -0.143297
O     -4.423657    3.571649   -0.407621
O     -5.084486   -1.163916   -0.194908
H      2.492689   -2.692465   -1.364915
H      1.497255    0.509359    1.366879
H      5.860307   -1.623225   -1.350447
H      5.827518    0.853177    0.561986
H      3.235127    1.836716    1.939590
H      0.313028   -2.695159   -0.000081
H     -5.861245    1.310994   -0.340768
H     -1.884347    3.036519   -0.306611
H     -5.394163    3.525906   -0.449780
H     -4.543787   -1.981197   -0.143415
