43

C      9.157450    0.307597   -1.081906
C      8.442835    0.262391    0.255074
C      7.134470   -0.489085    0.133022
O      7.105107   -1.710933    0.003770
C      5.883854    0.322455    0.150129
C      4.687036   -0.278895    0.090222
C      3.437546    0.452999    0.092481
C      2.242255   -0.156791    0.027274
C      0.926890    0.493272    0.015704
C     -0.170256   -0.291402   -0.052815
C     -1.557179    0.129178   -0.087782
C     -2.577155   -0.742931   -0.134696
C     -3.962891   -0.328209   -0.177953
C     -4.982068   -1.201751   -0.205281
C     -6.397649   -0.807429   -0.245492
C     -7.332396   -1.562396    0.475316
C     -8.690594   -1.235913    0.439401
C     -9.129078   -0.157739   -0.326695
C     -8.211322    0.590746   -1.061209
C     -6.852987    0.264517   -1.025095
C      0.899128    2.001042    0.080869
H      8.549391    0.824456   -1.832021
H     10.110797    0.836635   -0.988178
H      9.361386   -0.701329   -1.455880
H      8.266029    1.277963    0.624213
H      9.057211   -0.245581    1.006682
H      5.988780    1.399148    0.206207
H      4.631731   -1.366207    0.033451
H      3.506735    1.536081    0.147176
H      2.228393   -1.246307   -0.026547
H     -0.032388   -1.373163   -0.091563
H     -1.774581    1.192328   -0.079906
H     -2.381494   -1.813270   -0.143294
H     -4.158668    0.742325   -0.176915
H     -4.794315   -2.272680   -0.177057
H     -7.009643   -2.407506    1.079709
H     -9.405110   -1.824878    1.009133
H    -10.185506    0.095511   -0.356137
H     -8.551893    1.426038   -1.667749
H     -6.157858    0.849852   -1.622065
H      1.384484    2.353934    0.997608
H      1.420658    2.430986   -0.781483
H     -0.107134    2.424943    0.080362
