37
 xtb: 6.6.1 (8d0f1dd)
C      4.815100    0.208500    1.391600
C      5.883500    0.790400    0.709600
C      5.698100    1.392600   -0.518100
C      4.414000    1.395900   -1.042800
C      3.317100    0.811300   -0.366100
C      3.536900    0.211200    0.870900
C      2.167500    1.012200   -1.215100
C      2.633900    1.693200   -2.332600
N      3.955400    1.916800   -2.226400
C      0.815800    0.623400   -1.010700
C      0.224200   -0.037500    0.028800
C     -1.170900   -0.187900   -0.236200
N     -1.408300    0.399200   -1.461900
C     -0.260900    0.911600   -2.000200
O     -0.203100    1.479200   -3.080200
C     -2.114100   -0.792700    0.554400
C     -1.845500   -1.417300    1.835800
N     -2.890800   -1.928900    2.399800
C     -3.960900   -1.687900    1.539800
C     -5.280500   -2.051100    1.724700
C     -6.194500   -1.709600    0.737500
C     -5.794000   -1.023100   -0.399700
C     -4.469700   -0.655400   -0.591300
C     -3.539300   -0.986900    0.379300
H      4.995000   -0.254500    2.350000
H      6.867700    0.767300    1.151400
H      6.520200    1.844100   -1.050400
H      2.732800   -0.246800    1.422000
H      2.064800    2.016400   -3.182300
H      4.522900    2.394000   -2.909100
H      0.696600   -0.398500    0.917800
H     -2.306600    0.442400   -1.915400
H     -0.884200   -1.477200    2.312500
H     -5.582600   -2.583500    2.612300
H     -7.232300   -1.981500    0.856200
H     -6.525900   -0.769200   -1.151500
H     -4.197300   -0.120200   -1.488600
