37

C      4.803461    0.173922    1.440180
C      5.882311    0.743070    0.775343
C      5.709850    1.355814   -0.465691
C      4.420218    1.376624   -1.013367
C      3.304592    0.816063   -0.379471
C      3.519981    0.203813    0.877546
C      2.171650    1.034368   -1.243588
C      2.647286    1.710322   -2.350444
N      3.990353    1.909690   -2.203224
C      0.802918    0.663991   -1.073470
C      0.196947    0.011929   -0.063817
C     -1.218857   -0.163306   -0.285841
N     -1.452230    0.418450   -1.491407
C     -0.307017    0.944214   -2.046954
O     -0.251316    1.516227   -3.120040
C     -2.124289   -0.758534    0.497111
C     -1.805022   -1.380126    1.812784
N     -2.836960   -1.904205    2.409741
C     -3.920928   -1.669849    1.534279
C     -5.228638   -2.059598    1.765478
C     -6.192443   -1.754887    0.802630
C     -5.837095   -1.069207   -0.370094
C     -4.513495   -0.676335   -0.601014
C     -3.563212   -0.981957    0.358246
H      4.954682   -0.300005    2.407111
H      6.871672    0.711415    1.225574
H      6.552643    1.800597   -0.985357
H      2.709643   -0.252472    1.432035
H      2.147721    2.072428   -3.240418
H      4.584966    2.380796   -2.871034
H      0.691537   -0.348250    0.820384
H     -2.335172    0.486363   -1.969055
H     -0.783770   -1.380421    2.215478
H     -5.490166   -2.588674    2.675355
H     -7.226579   -2.051317    0.962906
H     -6.603843   -0.841372   -1.108173
H     -4.271398   -0.149580   -1.514110
