46

C     -6.690930   -0.931358   -2.915399
C     -5.491278   -0.501058   -2.129952
C     -5.462112    0.532950   -1.273307
C     -4.244510    0.935493   -0.627189
C     -3.135474    0.209733   -0.804045
O     -3.137264   -0.929734   -1.637997
C     -4.253485   -1.295852   -2.339141
O     -4.237129   -2.250290   -3.112073
C     -1.858763    0.546071   -0.203570
C     -0.772488   -0.242648   -0.219985
C      0.541008    0.062104    0.352687
C      1.492038   -0.893944    0.319384
C      2.870310   -0.789379    0.777541
C      3.736927    0.021453    0.138511
C      5.150481    0.178531    0.482215
C      5.547891    1.129930    1.428541
C      6.898342    1.276259    1.752848
C      7.854713    0.472936    1.134343
C      7.463063   -0.478904    0.191003
C      6.113789   -0.625850   -0.136023
C      3.212127   -1.690561    1.928183
C      0.761323    1.430832    0.940571
O     -6.545231    1.349417   -1.036407
C     -7.292706    0.894815    0.093354
H     -7.563808   -0.297195   -2.728374
H     -6.970166   -1.960362   -2.658005
H     -6.479239   -0.885446   -3.989105
H     -4.257558    1.833290   -0.014046
H     -1.820419    1.513682    0.291903
H     -0.849663   -1.212374   -0.711683
H      1.251057   -1.880794   -0.080426
H      3.414470    0.618998   -0.711774
H      4.809481    1.759387    1.916554
H      7.204300    2.017423    2.487507
H      8.905530    0.586260    1.387850
H      8.207560   -1.106946   -0.288954
H      5.817247   -1.371557   -0.871353
H      2.641782   -1.398268    2.817922
H      2.966951   -2.730519    1.687898
H      4.271874   -1.660709    2.197175
H      0.699497    2.192920    0.158866
H      0.010387    1.652114    1.709065
H      1.733477    1.543276    1.427779
H     -8.096761    1.615380    0.275496
H     -7.745658   -0.081635   -0.108926
H     -6.670984    0.842130    0.993015
