77

C      3.210792   -0.593152   -3.743971
C      2.428543   -0.361530   -2.498232
C      1.698850    0.829103   -2.160041
C      1.578340    2.080239   -2.976537
C      2.565111    3.149042   -2.541327
C      2.212320    4.463467   -3.185628
O      2.149916    5.473398   -2.295061
O      1.992841    4.669819   -4.368508
C      1.142315    0.621824   -0.908951
N      1.449609   -0.656993   -0.514663
C      2.309335   -1.223256   -1.421931
C      2.827673   -2.505805   -1.133044
C      3.741036   -2.768543   -0.186377
N      4.139179   -4.049721    0.072129
C      5.013114   -4.124781    1.132486
O      5.504591   -5.141143    1.587903
C      5.218805   -2.717470    1.593827
C      6.036675   -2.302830    2.709128
C      6.717353   -3.108291    3.539905
C      4.484480   -1.944280    0.760016
C      4.440379   -0.447799    0.756846
C      0.452430    1.460335    0.000522
C     -0.756861    1.174609    0.508705
N     -1.522751    0.083918    0.158652
C     -2.609456    0.193101    0.865009
C     -3.802203   -0.669947    0.728362
C     -4.052255   -1.364870   -0.388392
N     -3.215205   -1.468208   -1.454533
C     -3.749847   -2.246533   -2.447037
O     -3.250671   -2.561383   -3.509115
C     -5.103320   -2.640141   -1.967159
C     -6.033482   -3.358819   -2.871563
C     -5.254716   -2.125746   -0.727508
C     -6.476831   -2.164849    0.064887
C     -7.332209   -3.190389    0.161280
C     -2.620506    1.323565    1.827421
C     -3.673665    1.558094    2.840915
C     -1.483247    1.963190    1.506156
C     -0.893178    3.260521    2.012186
C     -1.747185    4.206384    2.862709
C     -1.366335    4.123859    4.318330
O     -2.018400    5.050851    5.054036
O     -0.589339    3.354205    4.854006
H      3.916433    0.232844   -3.898104
H      2.542895   -0.651141   -4.609589
H      3.779120   -1.526368   -3.711943
H      0.551134    2.458896   -2.897470
H      1.719241    1.839639   -4.036873
H      3.592768    2.884545   -2.820796
H      2.564012    3.261938   -1.447070
H      1.888577    6.249763   -2.841368
H      1.202982   -1.044947    0.380164
H      2.438831   -3.324834   -1.735050
H      3.823825   -4.876686   -0.411753
H      6.051702   -1.241277    2.939084
H      6.756310   -4.185959    3.427645
H      7.261222   -2.702948    4.386580
H      5.206895   -0.001335    1.400048
H      4.629603   -0.055632   -0.245120
H      3.480607   -0.075936    1.127189
H      0.971425    2.365865    0.293594
H     -4.536231   -0.641635    1.527999
H     -2.290460   -1.048243   -1.499376
H     -7.059465   -3.013525   -2.739471
H     -5.995764   -4.438420   -2.691802
H     -5.775664   -3.186378   -3.922256
H     -6.670794   -1.268538    0.647738
H     -7.209659   -4.129006   -0.365922
H     -8.199139   -3.097958    0.811988
H     -4.513798    2.112497    2.412726
H     -3.289428    2.117515    3.702165
H     -4.040673    0.617541    3.256256
H      0.040052    3.016228    2.540768
H     -0.584019    3.844542    1.132591
H     -1.547234    5.241146    2.546069
H     -2.812105    4.025870    2.768349
H     -1.655222    4.938899    5.957172
