67

C     -9.446875    1.019892    0.932095
C     -7.929355    0.989593    1.045722
C     -7.343704   -0.214432    0.302637
C     -5.844040   -0.113227    0.265442
C     -5.227708    1.064315    0.464595
C     -5.996810    2.357721    0.655239
O     -7.416277    2.181812    0.451245
C     -5.598389    3.450265   -0.337845
C     -3.747949    1.124416    0.592453
O     -3.197564    2.133185    1.010541
C     -2.980280   -0.078505    0.241311
C     -1.584263   -0.080059    0.161886
C     -0.818278   -1.211750   -0.141584
C     -1.486258   -2.434483   -0.388450
C     -2.888294   -2.448718   -0.319345
C     -3.617717   -1.290137   -0.011238
C     -5.089008   -1.369754    0.052911
O     -5.661648   -2.443882   -0.080711
O     -0.715713   -3.521714   -0.684120
C     -1.365974   -4.765715   -0.910788
C      0.541892   -0.771882   -0.110466
C      1.813191   -1.426098   -0.318687
C      3.043759   -0.576346   -0.198140
C      2.955993    0.795487    0.116251
C      1.628451    1.444800    0.325465
C      0.505112    0.567102    0.189472
O     -0.766026    0.996542    0.355057
O      1.575555    2.641807    0.590886
C      4.130065    1.550354    0.253332
O      4.115722    2.883154    0.578985
C      5.389296    0.960250    0.066851
C      5.490069   -0.392616   -0.321469
C      4.311571   -1.157529   -0.400162
O      4.460517   -2.499410   -0.648470
C      6.861348   -1.013348   -0.591104
O      7.960145   -0.086507   -0.488420
C      7.817408    0.836335    0.587736
C      6.652155    1.767633    0.260981
C      9.120353    1.613604    0.712215
C      6.991418   -1.593258   -2.001271
O      1.937152   -2.617217   -0.581575
H     -9.762859    1.101736   -0.113801
H     -9.896410    0.121837    1.366477
H     -9.848815    1.897531    1.449919
H     -7.655781    0.969345    2.109053
H     -7.709700   -0.246986   -0.731270
H     -7.666685   -1.132817    0.806171
H     -5.855213    2.723790    1.679340
H     -5.727799    3.104698   -1.370280
H     -4.564536    3.781574   -0.212624
H     -6.247200    4.325810   -0.219376
H     -3.442239   -3.366693   -0.505197
H     -0.594125   -5.513202   -1.117387
H     -2.021481   -4.712871   -1.786122
H     -1.916048   -5.091394   -0.021776
H      3.186738    3.195833    0.669011
H      3.577893   -2.931645   -0.707924
H      7.039343   -1.800597    0.151640
H      7.642673    0.284193    1.520689
H      6.532124    2.487546    1.078251
H      6.843444    2.318162   -0.668412
H      9.953026    0.930089    0.910612
H      9.359452    2.135851   -0.220811
H      9.069904    2.346686    1.522797
H      6.805351   -0.819924   -2.756007
H      6.308194   -2.423413   -2.193130
H      8.011708   -1.956822   -2.170579
