67
 xtb: 6.6.1 (8d0f1dd)
C     -9.386700    0.999600    0.975100
C     -7.868000    0.943200    1.048200
C     -7.291000   -0.211400    0.221100
C     -5.800000   -0.121700    0.235600
C     -5.189100    1.062700    0.449900
C     -5.973400    2.336800    0.619900
O     -7.372400    2.171100    0.541200
C     -5.593700    3.367700   -0.448800
C     -3.724900    1.172100    0.601000
O     -3.187400    2.198000    1.003800
C     -2.960500   -0.028200    0.260300
C     -1.561500   -0.024500    0.207000
C     -0.801500   -1.176700   -0.094100
C     -1.446600   -2.406900   -0.352100
C     -2.840700   -2.407000   -0.289900
C     -3.573900   -1.259200    0.001500
C     -5.048800   -1.374400    0.059300
O     -5.614200   -2.452800   -0.051100
O     -0.691800   -3.459500   -0.633100
C     -1.302400   -4.714000   -0.905500
C      0.559800   -0.737900   -0.058700
C      1.827900   -1.424600   -0.262900
C      3.012900   -0.579600   -0.161600
C      2.930200    0.809600    0.146900
C      1.659100    1.474300    0.379000
C      0.506300    0.605600    0.246700
O     -0.762300    1.035500    0.408000
O      1.550400    2.677600    0.665500
C      4.108600    1.566200    0.257300
O      4.116700    2.854000    0.567800
C      5.370800    0.956800    0.026700
C      5.450200   -0.370200   -0.314100
C      4.272200   -1.166300   -0.374800
O      4.428800   -2.457300   -0.623900
C      6.775900   -1.026700   -0.605100
O      7.896400   -0.186100   -0.409200
C      7.755700    0.799100    0.598100
C      6.620100    1.754100    0.212300
C      9.091800    1.517100    0.721700
C      6.850400   -1.502300   -2.060700
O      1.889900   -2.637100   -0.501800
H     -9.695000    1.161200   -0.053400
H     -9.809200    0.069200    1.339900
H     -9.752900    1.824100    1.579200
H     -7.540900    0.826200    2.095300
H     -7.656200   -0.127800   -0.805500
H     -7.599300   -1.182700    0.609500
H     -5.705700    2.745000    1.612500
H     -5.759500    2.948800   -1.437500
H     -4.552400    3.652300   -0.337000
H     -6.226900    4.240500   -0.325000
H     -3.405500   -3.309300   -0.465400
H     -0.473800   -5.388400   -1.106200
H     -1.951800   -4.649000   -1.780100
H     -1.870300   -5.066700   -0.042900
H      3.185300    3.174500    0.697500
H      3.535800   -2.903700   -0.637300
H      6.861000   -1.904000    0.061100
H      7.499200    0.309600    1.552900
H      6.461800    2.515900    0.974900
H      6.883700    2.257900   -0.720400
H      9.866700    0.806700    0.993300
H      9.353700    1.965900   -0.231800
H      9.028800    2.289500    1.481300
H      6.663900   -0.665600   -2.727900
H      6.125100   -2.287000   -2.240600
H      7.851300   -1.880300   -2.243900
