29

C      5.545473   -1.059547   -0.326162
C      4.045072   -1.175515   -0.253227
O      3.479637   -2.259405   -0.334967
N      3.430888    0.048425   -0.089651
C      2.080928    0.330057    0.016618
C      1.082751   -0.559429   -0.020272
C     -0.338100   -0.159237    0.102490
N     -1.260551   -1.069303    0.059134
C     -2.586755   -0.622172    0.181458
C     -3.619228   -1.560678    0.141355
C     -4.951794   -1.156708    0.259496
C     -5.261568    0.194150    0.419172
C     -4.239843    1.142385    0.460911
C     -2.911230    0.731852    0.342303
O     -1.946424    1.711247    0.390549
C     -0.628763    1.293287    0.271777
C      0.360807    2.187400    0.309640
C      1.767186    1.781985    0.187148
O      2.668019    2.616885    0.223818
H      5.827880   -0.429758   -1.174503
H      5.928636   -0.619918    0.599026
H      5.987094   -2.051218   -0.457649
H      4.028134    0.873756   -0.036753
H      1.244245   -1.624328   -0.141454
H     -3.379177   -2.613478    0.016987
H     -5.746060   -1.898348    0.226574
H     -6.298816    0.506702    0.510933
H     -4.478243    2.194758    0.585141
H      0.169804    3.246153    0.431848
