62
 xtb: 6.6.1 (8d0f1dd)
C     -2.666500   -4.008100   -1.356400
O     -3.130700   -3.720500   -0.049400
C     -2.901300   -2.475200    0.457300
C     -2.192700   -1.476500   -0.187500
C     -2.012900   -0.224900    0.416300
C     -1.288100    0.837400   -0.239400
C     -0.309900    0.716000   -1.216100
O      0.161100   -0.531100   -1.644000
C      0.975800   -1.183700   -0.725400
C      1.608400   -2.393300   -1.423900
O      0.601500   -3.311000   -1.751300
C      2.645400   -3.034000   -0.495900
O      3.288100   -4.047900   -1.226200
C      3.643500   -1.994600    0.029900
O      4.458700   -2.651600    0.966200
C      2.874900   -0.810400    0.637600
C      3.805500    0.343900    1.024400
O      4.713000   -0.103300    2.002600
O      1.963000   -0.273500   -0.299900
C      0.268300    1.848500   -1.805200
C     -0.184200    3.134400   -1.350700
C      0.341900    4.311400   -1.891900
C     -0.085200    5.549300   -1.438800
C     -1.041000    5.615900   -0.427700
C     -1.565600    4.448600    0.131500
C     -1.138200    3.217800   -0.331200
O     -1.662100    2.093900    0.223200
O     -1.494100    6.791300    0.052100
O      1.290600    4.268500   -2.872700
C      1.725400    3.039900   -3.289200
C      1.272800    1.863800   -2.810900
C     -2.587500    0.019800    1.672000
C     -3.294000   -0.974100    2.318000
O     -3.888000   -0.849400    3.551900
C     -3.814200    0.401700    4.207500
C     -3.453500   -2.233200    1.724500
O     -4.146100   -3.224200    2.353200
H     -2.920500   -5.052400   -1.520400
H     -1.586400   -3.865900   -1.437500
H     -3.173900   -3.381900   -2.095100
H     -1.783400   -1.649500   -1.167200
H      0.391000   -1.532200    0.150500
H      2.111300   -2.031500   -2.333000
H      1.038200   -4.092000   -2.130400
H      2.115500   -3.467500    0.368500
H      4.002200   -4.411500   -0.681100
H      4.245900   -1.628000   -0.817800
H      4.915200   -1.983100    1.507200
H      2.335500   -1.167600    1.529900
H      3.183200    1.165000    1.396700
H      4.327200    0.679800    0.120100
H      5.272800    0.633900    2.286600
H      0.333300    6.439500   -1.879300
H     -2.302300    4.517000    0.913300
H     -1.076600    7.540400   -0.402200
H      2.477700    3.138800   -4.053000
H      1.659700    0.932300   -3.183800
H     -2.453600    0.988900    2.119900
H     -4.276500    1.187800    3.606100
H     -4.368800    0.270100    5.133700
H     -2.778300    0.667800    4.431000
H     -4.470500   -2.879700    3.202400
