32

C     -3.195616   -2.490372    0.319806
C     -2.717050   -1.078298    0.188992
C     -3.555163   -0.036496    0.137605
C     -2.995881    1.312509    0.008767
C     -1.533026    1.432102   -0.056201
C     -0.927412    2.679524   -0.178694
C      0.455862    2.776635   -0.238851
C      1.262140    1.630028   -0.177892
C      2.654209    1.781789   -0.242744
C      3.481823    0.671182   -0.185463
O      4.839223    0.791082   -0.246459
C      2.953274   -0.603758   -0.063689
C      1.566453   -0.786689    0.003446
C      0.677845    0.336938   -0.052560
C     -0.750647    0.274008    0.006579
O     -1.340720   -0.967884    0.128042
O      0.987452   -2.027823    0.124430
C      1.836051   -3.166243    0.183082
O     -1.627385    3.853850   -0.245891
O     -3.720291    2.301309   -0.042692
H     -2.793082   -2.942469    1.232013
H     -2.860051   -3.083651   -0.536909
H     -4.287755   -2.553244    0.366174
H     -4.632020   -0.128591    0.185748
H      0.899958    3.765948   -0.334629
H      3.086692    2.774572   -0.338362
H      5.070135    1.731211   -0.330230
H      3.649344   -1.434088   -0.023790
H      2.485889   -3.129932    1.063480
H      1.199547   -4.051359    0.277815
H      2.417603   -3.273667   -0.738312
H     -2.587401    3.641879   -0.192611
