35
 xtb: 6.6.1 (8d0f1dd)
C     -2.615600   -0.829000   -1.972200
C     -1.413800   -0.584000   -1.119800
C     -1.448900   -0.758200    0.245500
C     -0.309200   -0.472800    1.039400
C      0.883800   -0.042100    0.433100
C      0.931200    0.112600   -0.975700
C     -0.208000   -0.153700   -1.743900
O     -0.216600   -0.018100   -3.067600
C      2.157300    0.558500   -1.622500
O      2.237900    0.707900   -2.859700
C      3.300200    0.826700   -0.787100
C      3.268700    0.686500    0.558600
C      2.034500    0.242500    1.255700
O      2.034300    0.131100    2.491300
O      4.274500    0.912000    1.404400
C      5.526500    1.344200    0.892600
O     -0.429200   -0.632000    2.353600
C     -2.694300   -1.171600    0.967900
C     -3.527800    0.032600    1.377900
O     -3.404200    1.121900    0.859400
C     -4.508900   -0.249800    2.472100
H     -2.390400   -0.590400   -3.006600
H     -2.921500   -1.871600   -1.911400
H     -3.439900   -0.204600   -1.634300
H      0.683600    0.288800   -3.363300
H      4.187300    1.150600   -1.309400
H      6.165900    1.459100    1.764000
H      5.944600    0.597100    0.215100
H      5.422700    2.299200    0.373900
H      0.430000   -0.402500    2.793800
H     -2.432300   -1.731200    1.865300
H     -3.321100   -1.798200    0.333400
H     -5.022400   -1.189400    2.294200
H     -3.957500   -0.337700    3.406500
H     -5.221600    0.565300    2.559700
