58

C     -3.577079   -3.777152    1.387839
O     -3.002278   -2.474220    1.285562
C     -3.760187   -1.486737    1.851964
O     -4.829323   -1.675424    2.421952
C     -3.111185   -0.106442    1.672455
C     -4.088101    0.852237    0.967760
C     -4.443418    0.451914   -0.448858
C     -3.666826    0.896216   -1.526817
C     -3.974912    0.506718   -2.830790
C     -5.064968   -0.327086   -3.070830
C     -5.849800   -0.768586   -2.007528
C     -5.542444   -0.380525   -0.702650
N     -1.811954   -0.189038    0.999238
C     -0.846248    0.773772    1.143931
O     -1.032483    1.794749    1.796187
C      0.446110    0.481205    0.429069
C      1.592234    0.932452    0.984753
C      2.944057    0.850924    0.516928
C      3.793010    1.385195    1.393869
C      2.928034    1.871908    2.483898
O      3.323879    2.447753    3.485334
O      1.616087    1.582797    2.221853
C      5.245367    1.512983    1.314935
C      6.045423    0.407592    0.987208
C      7.434116    0.533890    0.904531
C      8.038186    1.763783    1.154450
C      7.256096    2.865451    1.494314
C      5.867232    2.740236    1.577808
O      3.237573    0.324065   -0.707711
C      0.411861   -0.265642   -0.843806
C      0.690914   -1.639558   -0.873118
C      0.615854   -2.346222   -2.074322
C      0.265007   -1.686120   -3.251310
C     -0.007027   -0.318883   -3.231105
C      0.065292    0.390870   -2.031447
H     -3.675999   -4.070691    2.437414
H     -4.546273   -3.810199    0.879948
H     -2.903636   -4.483512    0.893892
H     -2.915735    0.268161    2.685415
H     -5.014970    0.932155    1.551330
H     -3.667811    1.866171    0.949352
H     -2.816387    1.551735   -1.353862
H     -3.364980    0.856023   -3.659362
H     -5.306180   -0.628299   -4.086652
H     -6.704712   -1.413572   -2.193714
H     -6.170118   -0.731835    0.114700
H     -1.647062   -1.011446    0.429568
H      5.599444   -0.569900    0.812274
H      8.045836   -0.329937    0.655919
H      9.119358    1.862500    1.096682
H      7.726650    3.823230    1.702877
H      5.278836    3.613490    1.855531
H      4.169419    0.511835   -0.917405
H      0.969420   -2.165550    0.037255
H      0.833186   -3.410996   -2.093209
H      0.207519   -2.237066   -4.186730
H     -0.275634    0.195247   -4.150241
H     -0.148268    1.457383   -2.029486
