39
 xtb: 6.6.1 (8d0f1dd)
C     -4.240300   -0.457800    1.584800
C     -3.466700   -0.596800    0.318100
C     -4.128600   -0.945200   -0.838100
C     -3.470000   -1.098400   -2.067800
C     -2.100700   -0.884000   -2.127900
C     -1.425300   -0.525900   -0.967500
C     -2.066700   -0.378000    0.272500
C     -1.277300   -0.024500    1.455100
O     -1.746300    0.041800    2.585900
C      0.152900    0.236200    1.178400
C      0.645200    0.049600   -0.080400
O     -0.090300   -0.332700   -1.118500
C      2.068900    0.240600   -0.437000
O      2.444800    0.047700   -1.598800
C      2.948400    0.645100    0.634200
C      2.446700    0.864300    1.944200
C      1.040500    0.686700    2.261100
O      0.605700    0.912500    3.400600
C      3.341800    1.268000    2.954000
C      4.707300    1.434800    2.659900
C      5.200700    1.222200    1.396300
C      4.308000    0.823600    0.352800
O      4.854700    0.647600   -0.846400
O      6.496700    1.385400    1.132300
O      2.967300    1.505700    4.202400
O     -4.241200   -1.447100   -3.108700
C     -3.642100   -1.622100   -4.384500
H     -5.299000   -0.615000    1.404000
H     -3.886300   -1.175600    2.322500
H     -4.085400    0.527700    2.019700
H     -5.193200   -1.115000   -0.822800
H     -1.526900   -0.978000   -3.033600
H      5.370600    1.738700    3.452800
H      4.160700    0.375800   -1.499600
H      6.679400    1.196700    0.192000
H      1.986000    1.358900    4.283300
H     -3.183500   -0.694000   -4.731000
H     -4.458700   -1.899500   -5.046100
H     -2.897600   -2.420200   -4.359800
