47
 xtb: 6.6.1 (8d0f1dd)
C     -2.924400   -1.843400    1.583200
C     -2.100200   -0.792200    0.864100
C     -2.860300    0.150300   -0.095300
C     -1.684800    0.636100   -0.983500
C     -0.659600   -0.544400   -0.936100
O     -1.121700   -1.446600    0.048600
C      0.617100    0.134200   -0.473100
C      0.289200    1.455500   -0.161100
O     -1.020500    1.756900   -0.379900
C      1.234000    2.342300    0.339900
C      2.546700    1.830500    0.564500
C      2.860400    0.489000    0.290600
C      1.887300   -0.381500   -0.257200
C      2.219900   -1.769900   -0.579500
O      1.470700   -2.507200   -1.217900
C      3.537800   -2.269900   -0.126100
C      4.442300   -1.426000    0.398300
C      4.197200   -0.007500    0.600000
O      5.091400    0.726900    1.046000
C      3.795300   -3.718000   -0.333300
O      3.428100    2.695200    1.049200
O      1.071500    3.635800    0.653000
C     -0.172100    4.280500    0.415000
O     -0.601900   -1.142800   -2.176300
O     -2.053200    1.001900   -2.260900
C     -3.851400   -0.618000   -0.969400
C     -3.559400    1.296100    0.625400
H     -3.358300   -2.534100    0.868600
H     -2.278900   -2.402000    2.254300
H     -3.707800   -1.360100    2.157400
H     -1.564700   -0.173900    1.606000
H      5.421500   -1.772900    0.696800
H      3.690500   -3.956700   -1.390800
H      3.040200   -4.300300    0.192800
H      4.784800   -3.995800    0.012600
H      4.302800    2.234600    1.180200
H     -0.459800    4.208300   -0.633900
H     -0.960700    3.851200    1.033800
H     -0.001900    5.318400    0.690000
H      0.049000   -1.879200   -2.119500
H     -1.567000    0.465000   -2.912200
H     -4.221000    0.036300   -1.753900
H     -3.361700   -1.472400   -1.431500
H     -4.687700   -0.960100   -0.368800
H     -2.872700    1.814600    1.289100
H     -3.935200    2.005000   -0.107000
H     -4.390800    0.910300    1.207600
