81

C     -4.366400    4.876231   -1.539824
C     -3.833988    3.538934   -1.132640
C     -3.045425    3.274927   -0.074492
C     -2.435395    4.286891    0.890724
C     -1.551240    3.404520    1.761915
N     -1.747937    2.100407    1.392871
C     -2.613788    1.946356    0.353051
C     -3.022574    0.756692   -0.114405
C     -2.622886   -0.472285    0.462241
C     -3.267057   -1.387633    1.277875
C     -2.345017   -2.470718    1.496594
C     -2.595219   -3.692917    2.334649
C     -3.491226   -4.722323    1.652033
C     -2.771528   -5.449843    0.551659
O     -3.549662   -5.665519   -0.525603
O     -1.626445   -5.871817    0.574881
C     -1.181243   -2.166684    0.801108
N     -1.365671   -0.946048    0.200857
C      0.040543   -2.868209    0.612621
C      1.203674   -2.322358    0.222147
C      2.472632   -3.025858    0.093816
C      2.620176   -4.511040    0.254694
C      2.146880   -5.280494   -0.979311
C      2.237007   -6.762211   -0.748869
O      1.569566   -7.462138   -1.686942
O      2.843160   -7.335938    0.139832
C      3.460167   -2.148522   -0.136268
C      2.716553   -0.876235   -0.187425
C      3.477011    0.384951   -0.330210
C      2.951266    1.519661   -0.801124
C      3.585507    2.816608   -0.931221
C      4.984077    3.077858   -0.493524
C      2.716204    3.708340   -1.450898
C      1.453027    2.964468   -1.697822
N      1.686519    1.678707   -1.271899
O      0.434099    3.416987   -2.183012
C      2.868986    5.148380   -1.789704
C      2.448119    6.048869   -0.636491
N      1.426981   -0.985639   -0.039066
C      4.914048   -2.325799   -0.349041
C     -4.650114   -1.262874    1.822312
O     -0.812510    3.778047    2.661538
C     -1.606076    5.400532    0.267369
H     -5.411607    4.770400   -1.851322
H     -4.353314    5.597928   -0.721016
H     -3.801650    5.272074   -2.389915
H     -4.166664    2.726886   -1.773534
H     -3.218420    4.694080    1.539275
H     -1.296736    1.334251    1.872584
H     -3.756585    0.697050   -0.909934
H     -1.644491   -4.149994    2.632522
H     -3.075256   -3.375598    3.270301
H     -3.820248   -5.473039    2.378061
H     -4.387017   -4.242573    1.243247
H     -2.966197   -6.138417   -1.156301
H     -0.651869   -0.477408   -0.344885
H      0.011487   -3.925491    0.851341
H      2.074904   -4.848715    1.144460
H      3.668735   -4.768451    0.456995
H      2.769290   -5.029141   -1.846419
H      1.103387   -5.029628   -1.211807
H      1.685847   -8.395565   -1.409954
H      4.502568    0.369442    0.010019
H      5.114592    2.831846    0.566637
H      5.265488    4.129933   -0.617448
H      5.691863    2.479152   -1.075611
H      0.991589    0.945115   -1.296288
H      3.910740    5.366267   -2.049386
H      2.276984    5.388797   -2.682551
H      1.403871    5.877641   -0.359730
H      2.553969    7.099760   -0.919296
H      3.069691    5.872150    0.250625
H      5.188503   -3.378773   -0.457509
H      5.476830   -1.920596    0.498919
H      5.238102   -1.814522   -1.262394
H     -4.963912   -0.214371    1.875872
H     -5.360993   -1.797192    1.180618
H     -4.710580   -1.676765    2.834563
H     -0.930520    5.022537   -0.504603
H     -2.242636    6.160269   -0.192626
H     -0.994548    5.905395    1.021082
