33
 xtb: 6.6.1 (8d0f1dd)
C     -1.246900    2.751300    1.552400
C     -1.747600    1.482900    0.944300
C     -3.077000    1.088500    0.873400
C     -3.174800   -0.151100    0.240400
C     -1.897400   -0.582900   -0.112100
C     -0.962100    0.477200    0.343700
C      0.410700    0.528200    0.232400
C      1.296500   -0.386800   -0.331100
C      2.773200   -0.037200   -0.297400
C      3.280200    0.086600    1.141800
C      3.057400    1.243000   -1.087500
C      0.941500   -1.592800   -0.921600
C     -0.296300   -2.192900   -1.108600
C     -1.576200   -1.773900   -0.762200
C     -2.714400   -2.687100   -1.121300
H     -2.081400    3.331900    1.938200
H     -0.719400    3.356100    0.814500
H     -0.561900    2.545400    2.375200
H     -3.910800    1.656300    1.251700
H     -4.095300   -0.674300    0.061600
H      0.859400    1.420800    0.650400
H      3.327800   -0.851700   -0.775400
H      4.354600    0.254700    1.145000
H      3.070100   -0.825800    1.695600
H      2.803600    0.916700    1.656600
H      4.128100    1.430300   -1.120300
H      2.574600    2.102600   -0.630100
H      2.690600    1.146500   -2.107000
H      1.773100   -2.173400   -1.306600
H     -0.251500   -3.152200   -1.611000
H     -3.256600   -2.980300   -0.224200
H     -2.358600   -3.583000   -1.621800
H     -3.413100   -2.173700   -1.779300
