44

C     -5.251833   -2.466837    0.726467
C     -4.079405   -1.579604    0.426995
C     -2.778187   -2.093558    0.426215
C     -1.676241   -1.253487    0.190054
C     -1.853705    0.104861   -0.078860
C     -3.157960    0.618654   -0.100094
C     -4.248004   -0.215410    0.189967
O     -5.507501    0.317881    0.264421
O     -3.429146    1.949400   -0.300902
C     -3.645310    2.212067   -1.692606
C     -0.659573    0.940935   -0.356184
O     -0.771545    1.991551   -0.974063
C      0.680885    0.439401    0.041793
C      1.802056    1.278259    0.136263
C      3.068762    0.749269    0.461018
C      3.220742   -0.627400    0.708925
C      2.101517   -1.456110    0.606591
C      0.842159   -0.922089    0.287160
C     -0.320012   -1.828876    0.249320
O     -0.159234   -3.042390    0.301460
O      4.466762   -1.066109    1.069260
C      4.613082   -2.430668    1.443376
O      4.094048    1.654736    0.610340
C      5.263458    1.336146   -0.140761
O      1.652251    2.639497    0.023642
C      2.063157    3.097464   -1.264785
H     -5.667712   -2.222742    1.709088
H     -4.962239   -3.522963    0.732372
H     -6.028421   -2.346523   -0.035954
H     -2.614502   -3.151728    0.630027
H     -5.391473    1.287566    0.249689
H     -4.673729    1.952991   -1.964695
H     -2.946801    1.673588   -2.342796
H     -3.509391    3.285169   -1.855817
H      2.173255   -2.524743    0.791776
H      4.408317   -3.093980    0.596816
H      3.981143   -2.675833    2.303322
H      5.654618   -2.584652    1.741509
H      5.044805    0.753043   -1.042792
H      5.988228    0.815909    0.491961
H      5.720185    2.278887   -0.457853
H      1.747613    2.422651   -2.068951
H      3.148161    3.233801   -1.295051
H      1.596719    4.071973   -1.437661
