56
 xtb: 6.6.1 (8d0f1dd)
C     -8.096100   -0.835200    0.279000
C     -6.622600   -0.733800    0.087100
C     -5.845000    0.246100    0.605300
C     -4.440700    0.248300    0.373600
C     -3.861700   -0.780500   -0.394500
C     -2.463900   -0.826500   -0.597700
C     -1.662700    0.149400   -0.002500
C     -2.254500    1.252500    0.650500
C     -3.619600    1.283900    0.871600
O     -4.250600    2.278600    1.553400
C     -1.355100    2.391400    1.058100
C     -0.296700    2.578800   -0.029100
C      0.490100    1.305100   -0.139000
C     -0.200000    0.092700   -0.064900
C      0.534200   -1.095900    0.042800
C      1.950300   -1.046800   -0.054900
C      2.607300    0.184400   -0.202700
C      1.869200    1.371700   -0.210300
O      2.542300    2.569300   -0.266200
C      1.697500    3.682200   -0.475400
O      0.561500    3.661200    0.321300
O      3.948000    0.304900   -0.308900
C      4.733500   -0.797500   -0.283400
C      4.192000   -2.081900   -0.130900
C      2.745800   -2.258500    0.011000
O      2.247800   -3.382100    0.177700
C      5.026100   -3.202900   -0.110100
C      6.385300   -3.057500   -0.241200
C      6.916800   -1.783700   -0.388900
C      6.128500   -0.629300   -0.412600
O      6.805800    0.530000   -0.560700
C      6.158200    1.794500   -0.574600
Cl     8.622500   -1.583600   -0.552000
O     -0.092000   -2.243200    0.301600
O     -1.909300   -1.751700   -1.397700
C     -4.713100   -1.803700   -0.958100
O     -4.309900   -2.744200   -1.672800
N     -6.040100   -1.713700   -0.672600
H     -8.605100   -0.819300   -0.682800
H     -8.347100   -1.768700    0.779200
H     -8.453900   -0.007000    0.880700
H     -6.266100    1.037200    1.199900
H     -3.614500    2.882500    1.962000
H     -0.845900    2.179900    2.001800
H     -1.899700    3.329800    1.154900
H     -0.791300    2.805300   -0.989500
H      1.421000    3.723100   -1.544400
H      2.279500    4.560400   -0.192300
H      4.567800   -4.171200    0.009300
H      7.044300   -3.908700   -0.230300
H      5.620300    1.980800    0.355200
H      5.471000    1.883500   -1.416400
H      6.970900    2.509700   -0.682600
H      0.571400   -2.979400    0.311700
H     -2.624700   -2.368400   -1.696500
H     -6.626800   -2.442400   -1.065200
