56

C     -8.245097   -0.828408    0.377942
C     -6.763369   -0.766766    0.164581
C     -5.995647    0.229113    0.630752
C     -4.545776    0.230650    0.384916
C     -3.965469   -0.826925   -0.328990
C     -2.578456   -0.864510   -0.561086
C     -1.731466    0.133180   -0.040078
C     -2.342911    1.269054    0.558506
C     -3.723253    1.277062    0.819140
O     -4.303501    2.320459    1.492732
C     -1.466294    2.473419    0.843706
C     -0.374579    2.611470   -0.231484
C      0.427411    1.341202   -0.296087
C     -0.243354    0.107262   -0.140451
C      0.558718   -1.040847    0.000964
C      1.954375   -0.972458   -0.172337
C      2.581731    0.245322   -0.421287
C      1.814031    1.409902   -0.461757
O      2.466038    2.605679   -0.612367
C      1.593831    3.725118   -0.764102
O      0.474888    3.702099    0.115579
O      3.937452    0.385404   -0.597093
C      4.741998   -0.722385   -0.498496
C      4.248402   -1.999601   -0.247273
C      2.802079   -2.169261   -0.065347
O      2.311872   -3.268388    0.170358
C      5.107669   -3.101465   -0.173382
C      6.478774   -2.922016   -0.361385
C      6.985990   -1.645352   -0.614632
C      6.122597   -0.541941   -0.664735
O      6.624434    0.703787   -0.955739
C      6.787773    1.471248    0.238087
Cl     8.686933   -1.470128   -0.850959
O     -0.033063   -2.213748    0.405205
O     -2.030899   -1.824958   -1.379808
C     -4.856244   -1.900511   -0.838651
O     -4.405611   -2.839391   -1.489674
N     -6.197061   -1.794430   -0.549519
H     -8.769509   -0.828869   -0.583237
H     -8.515059   -1.740336    0.920794
H     -8.610517    0.025873    0.957452
H     -6.419587    1.054977    1.193264
H     -3.642149    2.724546    2.078070
H     -1.027988    2.373997    1.845356
H     -2.050974    3.400969    0.845563
H     -0.829634    2.809038   -1.211969
H      1.270168    3.810083   -1.809700
H      2.175254    4.622040   -0.530341
H      4.712221   -4.096751    0.021192
H      7.144822   -3.780523   -0.314443
H      7.364284    0.925944    0.993539
H      5.819116    1.774720    0.647609
H      7.342824    2.377574   -0.021164
H      0.628213   -2.938560    0.354086
H     -2.717205   -2.498271   -1.581983
H     -6.779225   -2.544392   -0.904285
