67
 xtb: 6.6.1 (8d0f1dd)
O     -6.743100   -2.799000   -1.792400
C     -6.589900   -1.606600   -1.643600
O     -5.537500   -1.045300   -1.077400
C     -4.475900   -1.876500   -0.601300
C     -7.623000   -0.563800   -2.070800
C     -8.797700   -0.571700   -1.074200
C     -8.316800   -0.222600    0.307500
C     -8.333700    1.094200    0.753500
C     -7.828100    1.423400    2.000400
C     -7.298500    0.438600    2.815900
C     -7.288700   -0.878300    2.385200
C     -7.795100   -1.206000    1.140000
N     -7.029100    0.749700   -2.149900
C     -6.103300    1.037100   -3.084800
C     -5.324500    2.316000   -2.817600
C     -4.278100    1.959900   -1.810100
C     -2.980900    1.806700   -2.104300
C     -1.987900    1.419600   -1.150600
C     -0.675300    1.288500   -1.453000
C      0.323100    0.904000   -0.519400
C      1.641200    0.804000   -0.831600
C      2.648900    0.433900    0.091600
C      3.970400    0.366100   -0.224600
C      4.984600    0.008100    0.693600
C      6.307600   -0.036800    0.376400
C      7.325300   -0.387600    1.293600
C      8.648300   -0.421500    0.976600
C      9.649900   -0.773000    1.912600
C     10.997700   -0.838600    1.721100
C     11.681100   -0.534900    0.425300
C     11.812600   -1.233200    2.872700
C     13.303400   -1.309700    2.676600
O     11.314200   -1.495900    3.969100
O     -5.893300    0.318600   -4.053100
H     -3.546900   -1.459700   -0.985100
H     -4.488500   -1.845900    0.487500
H     -4.616000   -2.898700   -0.953400
H     -7.970900   -0.854600   -3.068600
H     -9.236900   -1.569600   -1.084100
H     -9.541200    0.147800   -1.416300
H     -8.766100    1.865000    0.131400
H     -7.848400    2.449500    2.334800
H     -6.901400    0.692800    3.786600
H     -6.887100   -1.652700    3.021700
H     -7.787600   -2.235000    0.807800
H     -7.041000    1.288400   -1.293500
H     -4.867100    2.646300   -3.749300
H     -5.994300    3.084300   -2.433000
H     -4.626900    1.767600   -0.804500
H     -2.639400    1.985300   -3.115900
H     -2.325000    1.226800   -0.140600
H     -0.347700    1.489100   -2.465400
H      0.001300    0.689500    0.491500
H      1.957500    1.024600   -1.843300
H      2.336900    0.201100    1.101700
H      4.279700    0.603500   -1.234600
H      4.678700   -0.237100    1.702700
H      6.613000    0.211200   -0.632000
H      7.022500   -0.639200    2.302200
H      8.940500   -0.167600   -0.032300
H      9.306500   -1.022200    2.911300
H     12.234800   -1.403200    0.073300
H     10.963200   -0.255600   -0.337400
H     12.386100    0.285000    0.549100
H     13.690700   -0.338800    2.379100
H     13.541500   -2.027700    1.896300
H     13.771600   -1.617000    3.608100
