67

O     -7.638895   -3.315539   -0.969610
C     -7.256147   -2.267702   -0.461323
O     -7.384862   -1.960632    0.864892
C     -8.014559   -2.983639    1.636705
C     -6.582179   -1.128558   -1.240969
C     -7.492166   -0.680411   -2.401909
C     -8.757530    0.029101   -1.963502
C     -8.775886    1.424385   -1.822595
C     -9.935071    2.078438   -1.402539
C    -11.086884    1.345893   -1.122813
C    -11.081495   -0.040977   -1.264711
C     -9.922964   -0.697472   -1.684753
N     -6.178626   -0.016674   -0.372329
C     -5.257852    0.925134   -0.764534
C     -5.008944    2.031263    0.262100
C     -3.591122    2.207412    0.733357
C     -2.525687    1.461279    0.401815
C     -1.191887    1.739793    0.889012
C     -0.123284    1.013683    0.527309
C      1.219721    1.307034    0.979189
C      2.287479    0.594540    0.589950
C      3.636065    0.900505    1.014240
C      4.703272    0.201845    0.599849
C      6.055300    0.520538    1.002781
C      7.124326   -0.167076    0.573537
C      8.478602    0.160428    0.967667
C      9.549060   -0.525981    0.535941
C     10.903924   -0.186256    0.921920
C     12.018476   -0.848820    0.558811
C     12.106281   -2.101978   -0.255867
C     13.310317   -0.288645    1.075532
C     14.506105   -0.323052    0.159230
O     13.390376    0.176996    2.211252
O     -4.701384    0.884548   -1.858823
H     -8.052299   -2.647877    2.677009
H     -9.038136   -3.152105    1.286738
H     -7.432173   -3.909230    1.594504
H     -5.657622   -1.552801   -1.654794
H     -7.775134   -1.546969   -3.017682
H     -6.936226   -0.014855   -3.074919
H     -7.886453    2.009027   -2.049113
H     -9.944027    3.160308   -1.301557
H    -11.993398    1.854401   -0.804836
H    -11.982362   -0.612010   -1.058588
H     -9.942446   -1.780672   -1.803427
H     -6.615576    0.029139    0.541666
H     -5.345676    2.967584   -0.200293
H     -5.644142    1.869596    1.141414
H     -3.450678    3.051569    1.406580
H     -2.631296    0.619628   -0.280428
H     -1.072293    2.589262    1.558244
H     -0.245719    0.171597   -0.151959
H      1.344181    2.155921    1.648512
H      2.159921   -0.248564   -0.085835
H      3.764847    1.743443    1.690226
H      4.572253   -0.641496   -0.075496
H      6.185999    1.361556    1.680974
H      6.994168   -1.009525   -0.103398
H      8.607832    1.003985    1.644644
H      9.405717   -1.365870   -0.138272
H     11.004247    0.697617    1.555654
H     12.883745   -2.766243    0.136652
H     11.175499   -2.677600   -0.247441
H     12.351441   -1.864307   -1.297019
H     14.201020   -0.216533   -0.885908
H     15.045611   -1.263842    0.298988
H     15.167298    0.516463    0.398981
