32
 xtb: 6.6.1 (8d0f1dd)
C      5.065300    1.668900    0.492800
C      3.784200    0.915600    0.409900
C      2.570600    1.439300    0.174100
C      1.409300    0.597900    0.119600
C      0.144700    1.077100   -0.117600
C     -0.968800    0.218600   -0.162300
C     -2.248500    0.744400   -0.407600
C     -3.346700   -0.084000   -0.452500
C     -3.183600   -1.466300   -0.252100
C     -1.949800   -2.019700   -0.011100
C     -0.790600   -1.183900    0.042200
C      0.511700   -1.679100    0.286200
C      1.604900   -0.800000    0.324900
C      2.931500   -1.295900    0.571400
O      3.211000   -2.486700    0.760400
O      3.959400   -0.430100    0.604600
O      0.685100   -2.998600    0.479600
O     -1.905200   -3.353800    0.164600
O     -4.620300    0.314000   -0.680000
C     -4.874200    1.691400   -0.898100
H      5.518000    1.516600    1.470600
H      4.891100    2.726100    0.330200
H      5.762000    1.291200   -0.252900
H      2.455500    2.498200    0.023600
H     -0.003900    2.133600   -0.273200
H     -2.336200    1.807200   -0.556700
H     -4.049200   -2.106700   -0.289500
H      1.645400   -3.184300    0.637000
H     -0.989900   -3.650000    0.328200
H     -5.947600    1.762300   -1.056800
H     -4.345200    2.051700   -1.783300
H     -4.589900    2.285100   -0.026300
