30

C     -4.515843   -1.194576    0.046755
C     -3.136403   -0.608540    0.031672
C     -2.024878   -1.430129    0.024195
C     -0.759825   -0.837787    0.010165
C     -0.623603    0.549351    0.003869
C     -1.793863    1.311899    0.012107
N     -3.029861    0.738296    0.025796
C     -1.807283    2.812975    0.006799
C      0.731489    1.145037   -0.011014
O      0.906253    2.359437   -0.017043
C      1.922628    0.270536   -0.019042
C      1.771373   -1.114301   -0.012619
C      0.426253   -1.715189    0.002190
O      0.292894   -2.933349    0.007843
C      2.897695   -1.950355   -0.020179
C      4.178562   -1.398548   -0.034201
C      4.336725   -0.014280   -0.040686
C      3.215837    0.814066   -0.033152
O      3.463213    2.160825   -0.040340
H     -4.673387   -1.813834   -0.841753
H     -5.274390   -0.405208    0.051071
H     -4.656592   -1.807448    0.942482
H     -2.137242   -2.511061    0.029160
H     -1.310868    3.207133    0.898598
H     -2.836289    3.189544    0.015107
H     -1.327742    3.200634   -0.897000
H      2.780936   -3.033218   -0.015172
H      5.052348   -2.046257   -0.040068
H      5.332758    0.422400   -0.051616
H      2.599108    2.631949   -0.033926
