68
 xtb: 6.6.1 (8d0f1dd)
C     -0.874100   -1.748200   -4.643800
C      0.346800   -1.295700   -3.920400
C      1.566600   -1.157400   -4.487300
C      2.703800   -0.713800   -3.724700
O      3.838100   -0.583400   -4.236100
C      2.436300   -0.425900   -2.327800
C      3.451100    0.031400   -1.467200
C      3.151800    0.311100   -0.112100
C      1.823400    0.131700    0.364400
C      1.510600    0.402500    1.709500
C      2.482900    0.849200    2.569100
C      3.803900    1.032300    2.113800
C      4.147500    0.773700    0.810600
O      5.394200    0.928600    0.322200
C      6.420700    1.383500    1.184500
O      2.294000    1.146200    3.878600
C      0.994000    1.012100    4.424100
C      0.812400   -0.324200   -0.513600
C      1.126000   -0.600900   -1.825900
O      0.115100   -1.038300   -2.627200
C     -0.579800   -0.544200   -0.051600
C     -1.007300   -1.831200    0.182800
C     -2.327600   -2.109700    0.610300
C     -3.235100   -1.050500    0.788700
C     -2.821400    0.281200    0.537100
C     -1.484300    0.533500    0.114400
C     -1.072800    1.847500   -0.144200
C     -1.944500    2.905200    0.004100
C     -3.265400    2.674100    0.421500
C     -3.706300    1.395400    0.684300
O     -4.962700    1.114100    1.082400
C     -5.900900    2.164100    1.232200
O     -1.447600    4.135800   -0.274800
C     -2.290100    5.270400   -0.159500
O     -4.478600   -1.297000    1.190700
C     -2.716900   -3.485200    0.858400
O     -3.866400   -3.803600    1.236900
C     -1.683400   -4.463000    0.641400
C     -0.446000   -4.103400    0.231400
O     -0.099900   -2.831100   -0.001100
C      0.671000   -5.057200   -0.015200
O      4.688700    0.201000   -1.925400
H     -1.690100   -1.057500   -4.444100
H     -1.176300   -2.726800   -4.275600
H     -0.686500   -1.806500   -5.709500
H      1.719300   -1.373400   -5.530900
H      0.494200    0.253200    2.030800
H      4.520800    1.382900    2.836000
H      6.576700    0.687100    2.011800
H      6.195200    2.379400    1.573200
H      7.312000    1.423400    0.563000
H      1.086700    1.320000    5.462800
H      0.282400    1.659200    3.905800
H      0.651600   -0.024300    4.374200
H     -0.063400    2.042700   -0.465600
H     -3.938900    3.504800    0.534000
H     -6.066100    2.683700    0.285200
H     -6.819800    1.674600    1.546000
H     -5.581700    2.873000    1.999900
H     -1.665800    6.115000   -0.441400
H     -3.141200    5.201400   -0.841000
H     -2.639800    5.400800    0.867200
H     -4.578900   -2.284200    1.311900
H     -1.928200   -5.496200    0.819200
H      0.404700   -6.052200    0.321700
H      1.563500   -4.712800    0.502200
H      0.900300   -5.084700   -1.078800
H      4.701600   -0.044000   -2.893600
