78
 xtb: 6.6.1 (8d0f1dd)
C     -6.775800   -3.063100    1.554400
C     -6.402200   -2.108300    0.456300
C     -5.398000   -2.663800   -0.509500
C     -6.947600   -0.899200    0.387800
C     -6.719300    0.153600   -0.660900
C     -5.848200    1.260500   -0.125400
C     -4.489700    1.035000    0.036900
C     -3.688100    2.054800    0.536300
C     -4.263900    3.316500    0.811500
N     -3.255000    4.171900    1.183300
C     -2.078400    3.527900    1.130900
C     -2.271700    2.201000    0.760400
C     -1.232200    1.222200    0.663900
C     -1.392000   -0.092900    0.986800
O     -2.609200   -0.550000    1.503300
C     -2.638500   -0.854100    2.807900
C     -3.961300   -1.424900    3.202800
O     -1.698500   -0.667000    3.550000
C     -0.345200   -1.090200    0.950900
C      1.002300   -0.626100    0.535100
C      2.064200   -1.586400    0.549300
C      2.166000   -2.629300    1.465500
N      3.291600   -3.328000    1.253300
C      3.959000   -2.805600    0.172400
C      3.221400   -1.697200   -0.304900
C      3.646400   -1.046900   -1.458100
C      4.815500   -1.461500   -2.079600
C      5.293100   -0.736100   -3.311500
C      5.692500    0.677800   -2.980800
C      6.850500    1.035500   -2.436500
C      7.172600    2.469000   -2.138200
C      7.921200    0.047100   -2.074300
C      5.546300   -2.534600   -1.561300
C      5.126800   -3.227200   -0.442500
C      1.154400    0.683800    0.184700
O      2.411300    1.184800   -0.160500
C      2.959900    2.102600    0.648900
C      4.201300    2.672800    0.043900
O      2.495700    2.394800    1.729200
C      0.101400    1.676200    0.201100
O      0.313700    2.836800   -0.158700
O     -0.576900   -2.262900    1.254400
C     -5.623000    3.545300    0.665700
C     -6.401900    2.500000    0.208800
H     -5.885800   -3.522200    1.978900
H     -7.330600   -2.564800    2.344400
H     -7.396300   -3.862000    1.148500
H     -4.401700   -2.625500   -0.065600
H     -5.371100   -2.114400   -1.445600
H     -5.624000   -3.706400   -0.724500
H     -7.639100   -0.599700    1.165700
H     -7.685800    0.564300   -0.959600
H     -6.243000   -0.279000   -1.540600
H     -4.065500    0.081400   -0.229900
H     -3.379800    5.134600    1.457000
H     -1.153800    4.000800    1.398200
H     -3.877500   -2.509800    3.176800
H     -4.197600   -1.122900    4.218000
H     -4.728200   -1.106900    2.503000
H      1.499000   -2.852900    2.274700
H      3.602100   -4.113700    1.804200
H      3.075200   -0.231900   -1.871200
H      4.486800   -0.713200   -4.046900
H      6.137900   -1.274000   -3.744400
H      4.953100    1.436700   -3.197500
H      7.397700    2.591000   -1.079600
H      6.346500    3.124300   -2.399700
H      8.052800    2.776000   -2.702000
H      8.104900   -0.647400   -2.891700
H      8.849900    0.558500   -1.837700
H      7.615300   -0.535200   -1.205900
H      6.449600   -2.843800   -2.064100
H      5.680800   -4.074000   -0.070500
H      4.733300    1.899100   -0.502700
H      4.819400    3.109700    0.820700
H      3.903600    3.450700   -0.656700
H     -6.055300    4.508500    0.883800
H     -7.463500    2.649100    0.082600
