30

C      1.656331    2.530562   -0.517043
N      1.011278    1.239039   -0.398232
C     -0.335335    1.073081   -0.139630
C     -0.580969   -0.272639   -0.172811
C      0.620696   -0.964044   -0.344341
C      1.609287   -0.012235   -0.471282
S      3.323584   -0.209074   -0.680299
C      3.755051   -1.075574    0.845881
C      0.573571   -2.444639   -0.298874
C     -0.845520   -2.941066   -0.676087
N     -1.998895   -2.161023   -0.127558
C     -1.856894   -0.889784    0.019285
C     -2.928071    0.070215    0.393688
C     -2.757115    1.408179    0.452289
C     -1.375784    2.026730    0.145475
O     -1.224427    3.245835    0.179313
N     -3.758206    2.292305    0.776732
H      1.852131    2.906226    0.490157
H      0.996548    3.209792   -1.062248
H      2.586640    2.444350   -1.080495
H      3.312945   -2.074813    0.863391
H      3.412732   -0.511926    1.718262
H      4.841833   -1.179376    0.904645
H      0.805743   -2.772298    0.721733
H      1.313723   -2.892196   -0.970203
H     -0.948843   -2.946951   -1.768868
H     -0.952934   -3.980644   -0.346481
H     -3.890276   -0.383839    0.597394
H     -3.521780    3.283006    0.782334
H     -4.697044    1.982802    0.986109
