30
 xtb: 6.6.1 (8d0f1dd)
C      1.647200    2.617400   -0.377500
N      0.981600    1.349900   -0.250000
C     -0.370100    1.156600   -0.102000
C     -0.576500   -0.216900   -0.062800
C      0.640100   -0.877300   -0.180300
C      1.596500    0.134200   -0.286300
S      3.333500    0.071100   -0.475200
C      3.767400   -1.354900    0.570700
C      0.627700   -2.367500   -0.087800
C     -0.785100   -2.892300   -0.459400
N     -1.955800   -2.148700   -0.052000
C     -1.853700   -0.869100    0.079400
C     -2.942800    0.022300    0.323700
C     -2.772900    1.378400    0.317600
C     -1.454500    2.060600    0.080200
O     -1.388200    3.299200    0.076800
N     -3.780400    2.251100    0.532800
H      2.498000    2.658500    0.303400
H      0.935200    3.404100   -0.137500
H      2.011200    2.756100   -1.397000
H      3.513400   -2.279500    0.066200
H      3.247700   -1.266500    1.517800
H      4.840000   -1.289900    0.719300
H      0.868600   -2.665900    0.938100
H      1.352300   -2.831200   -0.757700
H     -0.855100   -2.968400   -1.553300
H     -0.908700   -3.902700   -0.061100
H     -3.924800   -0.396400    0.475300
H     -3.563600    3.230300    0.436300
H     -4.728100    1.937200    0.624600
