64

C      9.504943   -1.002457    0.738443
C      8.068607   -0.898663    0.318046
C      7.641225   -1.456789   -0.890798
C      6.311780   -1.331182   -1.293539
O      5.989086   -1.916567   -2.489318
C      5.382866   -0.639173   -0.503047
C      5.809638   -0.070583    0.692601
C      4.861877    0.669936    1.541318
C      3.445520    0.766182    1.137271
C      2.997920    0.206856   -0.062070
C      1.633796    0.327293   -0.400670
O      1.134384   -0.264015   -1.538518
C      1.246923    0.605885   -2.668055
C      0.717203    0.962006    0.469853
C     -0.723317    1.042064    0.155155
C     -1.626744    0.035588    0.573093
O     -1.125157   -1.018153    1.301465
C     -0.830434   -2.139799    0.464190
C     -3.012800    0.157967    0.342455
C     -3.992024   -0.860913    0.805833
C     -5.439362   -0.645408    0.596590
C     -6.381985   -1.565375    1.078070
O     -6.038542   -2.698964    1.766434
C     -7.747211   -1.363215    0.876088
C     -8.198629   -0.240765    0.174793
C     -9.667476   -0.002568   -0.015848
C     -7.260692    0.685479   -0.296928
C     -5.887573    0.478824   -0.089113
C     -4.924563    1.466023   -0.603248
O     -5.314631    2.438300   -1.239953
O     -3.651722   -1.903836    1.356009
C     -3.483809    1.281366   -0.341630
C     -2.600765    2.273069   -0.789345
C     -1.239015    2.151057   -0.535136
O     -0.383199    3.130241   -0.968310
C      1.210383    1.514881    1.663301
O      0.345129    2.147598    2.516847
C      2.557676    1.426261    1.996983
C      3.974881   -0.501100   -0.931106
O      3.665168   -0.980479   -2.017697
O      5.244034    1.200216    2.578312
C      7.147360   -0.193148    1.101281
H      9.592128   -1.015048    1.829960
H      9.954906   -1.928888    0.366368
H     10.071460   -0.151809    0.347643
H      8.339912   -1.994574   -1.528793
H      5.032566   -1.753342   -2.658793
H      1.483821   -0.006508   -3.543306
H      2.027561    1.367834   -2.558827
H      0.283975    1.090587   -2.850108
H     -1.154369   -3.046282    0.984329
H      0.251483   -2.206483    0.320581
H     -1.328338   -2.103438   -0.512041
H     -5.055651   -2.731254    1.826464
H     -8.454587   -2.090988    1.269228
H     -9.856910    0.538520   -0.948841
H    -10.212919   -0.950356   -0.073945
H    -10.062910    0.582657    0.820021
H     -7.599326    1.573797   -0.829880
H     -2.987222    3.137170   -1.325147
H     -0.899482    3.887910   -1.291729
H      0.816813    2.406418    3.325726
H      2.925493    1.857189    2.925435
H      7.470848    0.262949    2.036805
