64
 xtb: 6.6.1 (8d0f1dd)
C      9.384900   -1.031700    0.666600
C      7.953800   -0.927800    0.260000
C      7.477800   -1.545900   -0.877800
C      6.134400   -1.446000   -1.265200
O      5.777500   -2.080400   -2.382100
C      5.231200   -0.694800   -0.482400
C      5.725700   -0.069800    0.680400
C      4.839900    0.718000    1.546700
C      3.421600    0.814200    1.144000
C      2.945900    0.224900   -0.039600
C      1.577600    0.372300   -0.341600
O      0.995700   -0.163400   -1.466200
C      1.179200    0.595400   -2.657300
C      0.726600    1.045300    0.532200
C     -0.721800    1.144600    0.234000
C     -1.562500    0.085600    0.579600
O     -0.964600   -0.974700    1.209900
C     -0.792300   -2.157000    0.436100
C     -2.951400    0.176500    0.352400
C     -3.880600   -0.855500    0.829500
C     -5.302700   -0.658200    0.579200
C     -6.238900   -1.619700    1.017500
O     -5.894000   -2.724300    1.679900
C     -7.603600   -1.433900    0.757900
C     -8.071000   -0.326300    0.080800
C     -9.524700   -0.129400   -0.188500
C     -7.143600    0.627100   -0.349000
C     -5.790000    0.471600   -0.108200
C     -4.873800    1.517700   -0.577400
O     -5.272000    2.502600   -1.188700
O     -3.481400   -1.857000    1.444300
C     -3.439100    1.337300   -0.273500
C     -2.590300    2.373300   -0.629400
C     -1.228000    2.301000   -0.366600
O     -0.368400    3.278800   -0.689800
C      1.217900    1.629900    1.705100
O      0.357300    2.284200    2.493700
C      2.573100    1.512100    1.989400
C      3.838000   -0.572200   -0.890500
O      3.427100   -1.133100   -1.918500
O      5.248700    1.269600    2.562000
C      7.057300   -0.187700    1.036600
H      9.457200   -1.424000    1.678600
H      9.936600   -1.678600   -0.007800
H      9.841500   -0.044000    0.664100
H      8.127800   -2.130600   -1.509900
H      4.810100   -1.934200   -2.542600
H      0.550400    0.115900   -3.402400
H      2.220700    0.569400   -2.984800
H      0.863900    1.629900   -2.501000
H     -0.265800   -2.847000    1.089900
H     -0.192100   -1.945100   -0.452600
H     -1.751300   -2.590200    0.145500
H     -4.910200   -2.734400    1.801600
H     -8.277900   -2.197600    1.113000
H     -9.689800    0.019300   -1.253200
H    -10.103300   -0.983600    0.148000
H     -9.877100    0.762300    0.326300
H     -7.468100    1.510300   -0.878700
H     -3.025600    3.239200   -1.107400
H     -0.834300    4.056200   -1.042100
H      0.802500    2.657700    3.273100
H      2.998900    1.947300    2.882200
H      7.389300    0.308800    1.936200
