40
 xtb: 6.6.1 (8d0f1dd)
C      2.777600   -1.876300   -0.802100
C      1.476000   -2.075700   -0.022500
C      0.546600   -0.887300   -0.275600
C      1.255300    0.441100   -0.173100
C      0.475100    1.589100   -0.052500
C      1.094700    2.826400    0.140700
C      2.463000    2.934900    0.199800
C      3.265500    1.803900    0.048300
C      2.656000    0.541400   -0.156500
C      3.491000   -0.624200   -0.387100
O      4.720500   -0.602400   -0.296100
O      4.590400    1.967000    0.101900
C     -0.981200    1.462900   -0.148000
C     -1.565900    0.245300    0.183300
C     -0.645300   -0.828900    0.721000
C     -1.334200   -2.145600    0.899200
C     -2.637300   -2.332600    0.696300
C     -3.536300   -1.269500    0.262900
O     -4.750500   -1.486000    0.127000
C     -2.941900    0.038000    0.013700
C     -3.745800    1.101700   -0.458300
C     -3.149300    2.328600   -0.756000
C     -1.792500    2.499800   -0.617800
O     -5.063400    0.980200   -0.648600
O     -0.083700   -0.454600    1.979100
O      0.814600   -3.242800   -0.458000
H      3.451100   -2.725500   -0.670900
H      2.535800   -1.791300   -1.865800
H      1.696800   -2.131500    1.054900
H      0.127500   -1.009600   -1.282600
H      0.490300    3.708500    0.276600
H      2.948400    3.882600    0.366400
H      5.036100    1.091600   -0.004700
H     -0.723600   -2.940400    1.295400
H     -3.105200   -3.288900    0.878200
H     -3.782800    3.122800   -1.116500
H     -1.349000    3.441200   -0.898300
H     -5.340700    0.058800   -0.416700
H     -0.789500   -0.349700    2.630900
H      1.406000   -4.003100   -0.367900
