61
 xtb: 6.6.1 (8d0f1dd)
C    -10.399100    1.104400    2.056500
C     -9.121400    0.844200    1.348200
C     -7.914800    0.841400    1.928800
C     -6.698600    0.588800    1.216300
C     -5.484800    0.590100    1.802800
C     -4.226300    0.347600    1.147900
C     -4.058800    0.062600   -0.179700
C     -2.769100   -0.158800   -0.723900
C     -2.587400   -0.450000   -2.086200
C     -1.320200   -0.664800   -2.564200
C     -0.209900   -0.600400   -1.715900
C      1.068700   -0.870700   -2.479000
C      1.830500    0.445500   -2.584100
C      2.968200    0.345200   -1.651400
C      3.869800    1.358500   -1.270200
O      3.736400    2.566800   -1.777300
C      4.877900    1.008100   -0.345400
C      5.836000    2.040800    0.076200
C      6.847500    1.663600    1.014500
C      6.969800    0.412500    1.536500
O      7.963200    0.217500    2.398600
C      8.233500   -1.025300    3.037900
C      6.020600   -0.654800    1.134900
O      6.113900   -1.796500    1.597200
O      5.773100    3.202300   -0.365600
C      4.977600   -0.300100    0.174400
C      4.060900   -1.309900   -0.220400
O      4.090400   -2.548600    0.218700
C      3.062100   -0.942900   -1.142400
C      1.982600   -1.787600   -1.683000
O      1.829600   -2.978600   -1.541600
O      1.538500    1.374700   -3.299800
C      0.560000   -1.448400   -3.812500
C     -0.888100   -0.962500   -3.964900
C     -0.337600   -0.302400   -0.371400
O      0.749900   -0.232900    0.422500
C     -1.642800   -0.082800    0.130900
C     -1.829100    0.221000    1.529200
N     -3.107300    0.414100    1.945200
O     -0.897200    0.312700    2.357200
H    -10.901300    1.964100    1.614000
H    -11.066700    0.250500    1.946200
H    -10.234700    1.293600    3.113800
H     -9.201800    0.646600    0.287100
H     -7.829900    1.038500    2.989400
H     -6.794400    0.393000    0.158500
H     -5.427600    0.791800    2.864600
H     -4.908900    0.001300   -0.835200
H     -3.442900   -0.503700   -2.739200
H      4.451200    3.160500   -1.404500
H      7.546200    2.429100    1.316200
H      9.100400   -0.821500    3.662700
H      7.392600   -1.347900    3.652700
H      8.466600   -1.804500    2.311500
H      4.835900   -2.670100    0.867000
H      1.193100   -1.133100   -4.639900
H      0.592900   -2.536600   -3.733600
H     -1.523200   -1.701600   -4.448800
H     -0.922600   -0.041000   -4.549800
H      0.429700   -0.020200    1.341300
H     -3.223000    0.626900    2.930500
