61

C    -10.264677   -1.774099   -3.238489
C     -8.798605   -1.758536   -2.948520
C     -8.240696   -1.033699   -1.967438
C     -6.817581   -1.032904   -1.703194
C     -6.266291   -0.314795   -0.710073
C     -4.857998   -0.235742   -0.351477
C     -4.467685    0.427588    0.751092
C     -3.046987    0.509765    1.107428
C     -2.635321    1.206680    2.251554
C     -1.280459    1.253793    2.551153
C     -0.332549    0.628599    1.733758
C      1.055916    0.851408    2.260242
C      1.923904   -0.396313    2.274259
C      3.075637   -0.172304    1.403034
C      4.101363   -1.044384    1.092851
O      4.110857   -2.293082    1.641138
C      5.119247   -0.599772    0.221876
C      6.240353   -1.498648   -0.143744
C      7.338957   -0.953538   -0.954245
C      7.333006    0.278446   -1.472355
O      8.339264    0.823385   -2.248552
C      9.477086    0.027054   -2.550871
C      6.153128    1.169699   -1.238371
O      6.089203    2.245746   -1.821945
O      6.314701   -2.671763    0.195687
C      5.082366    0.715309   -0.306340
C      4.025726    1.583327    0.050097
O      3.961259    2.870451   -0.396727
C      3.039000    1.110192    0.895263
C      1.862131    1.812201    1.403268
O      1.643752    2.983840    1.147019
O      1.773191   -1.437606    2.890357
C      0.793188    1.389015    3.677962
C     -0.620453    1.995474    3.671567
C     -0.721978   -0.041074    0.587422
O      0.256163   -0.586792   -0.196138
C     -2.087164   -0.108110    0.280273
C     -2.561112   -0.816834   -0.928483
N     -3.916515   -0.830095   -1.157415
O     -1.757221   -1.360701   -1.681965
H    -10.444685   -1.443678   -4.266116
H    -10.654793   -2.790853   -3.130189
H    -10.827501   -1.118898   -2.566139
H     -8.181949   -2.383769   -3.590477
H     -8.871721   -0.413990   -1.333086
H     -6.212539   -1.657735   -2.352914
H     -6.931081    0.278982   -0.082005
H     -5.181045    0.914490    1.408408
H     -3.353532    1.710426    2.892552
H      3.308441   -2.438571    2.188642
H      8.153829   -1.650522   -1.106543
H     10.149828    0.622915   -3.174541
H     10.016596   -0.246422   -1.638134
H      9.191228   -0.863654   -3.119322
H      3.145542    3.313932   -0.078160
H      1.534839    2.127647    4.003020
H      0.821763    0.571777    4.411811
H     -0.586428    3.065645    3.442265
H     -1.124995    1.836626    4.628859
H     -0.189528   -1.040801   -0.951329
H     -4.198376   -1.314728   -1.997965
