30
 xtb: 6.6.1 (8d0f1dd)
O     -5.652900   -1.583900    0.509800
C     -4.523500   -1.082300    0.427400
C     -3.317300   -1.849100    0.394000
C     -2.101000   -1.250600    0.302600
O     -0.993600   -2.020300    0.274500
C      0.218800   -1.420600    0.182500
C      1.355400   -2.224900    0.154600
C      2.594000   -1.634700    0.061800
C      2.714900   -0.238000   -0.003900
C      4.074500    0.340400   -0.101600
O      4.073600    1.667500   -0.155600
C      5.342900    2.316700   -0.250000
O      5.094900   -0.322700   -0.131400
C      1.590600    0.566800    0.023500
C      0.317800   -0.011100    0.117700
N     -0.784500    0.781900    0.145300
C     -1.963000    0.205300    0.234400
C     -3.136600    0.977000    0.266400
C     -4.377800    0.399300    0.357800
N     -5.525500    1.080200    0.391900
H     -3.394300   -2.924100    0.443400
H      1.238300   -3.295000    0.206900
H      3.493700   -2.229000    0.038500
H      5.124200    3.379100   -0.286300
H      5.953700    2.070000    0.619400
H      5.863300    1.990800   -1.151500
H      1.668900    1.639600   -0.025800
H     -3.028100    2.047600    0.216400
H     -6.375900    0.540200    0.460900
H     -5.545300    2.083900    0.347800
