30

O     -5.636975   -1.600230    0.509164
C     -4.538041   -1.057711    0.426736
C     -3.310322   -1.867217    0.393743
C     -2.101620   -1.309223    0.304696
O     -0.966443   -2.106244    0.276216
C      0.242315   -1.456444    0.183330
C      1.387791   -2.250466    0.154166
C      2.642215   -1.646087    0.060690
C      2.752095   -0.248894   -0.003624
C      4.113770    0.342760   -0.102406
O      4.048540    1.695765   -0.155337
C      5.321858    2.335607   -0.251323
O      5.135254   -0.325572   -0.130082
C      1.592141    0.538231    0.026616
C      0.332544   -0.058447    0.120054
N     -0.802705    0.769052    0.147268
C     -1.950442    0.170791    0.234684
C     -3.186682    0.980834    0.268121
C     -4.406430    0.439633    0.357069
N     -5.572121    1.159020    0.390452
H     -3.442069   -2.940669    0.445724
H      1.306883   -3.332993    0.203764
H      3.535776   -2.268287    0.038057
H      5.156114    3.415862   -0.287408
H      5.932591    2.107941    0.627976
H      5.834799    2.032892   -1.169609
H      1.649274    1.622639   -0.021769
H     -3.046591    2.054310    0.215686
H     -6.442823    0.634411    0.459718
H     -5.580696    2.168733    0.348767
