35
 xtb: 6.6.1 (8d0f1dd)
O      1.509000    3.240200    2.138900
C      0.677500    2.439500    1.447900
C      1.118600    1.602500    0.485900
C      0.237600    0.701300   -0.236300
N      0.584500   -0.193700   -1.090200
C      1.926800   -0.441500   -1.511700
C      2.487700   -1.691700   -0.812400
C      2.810300   -1.424100    0.658100
O      3.805400   -0.438000    0.836700
C     -1.176700    0.826700    0.081500
C     -1.613100    1.705700    1.082400
N     -2.971300    1.616900    1.163300
C     -3.405800    0.733100    0.248800
C     -2.327500    0.215900   -0.455500
C     -2.405100   -0.783400   -1.559600
C     -2.226400   -2.217500   -1.046600
O     -0.997500   -2.412800   -0.380500
C     -0.752800    2.553000    1.829300
O     -1.083000    3.350600    2.721900
H      0.964500    3.744700    2.779800
H      2.181600    1.563800    0.305300
H      1.870200   -0.646100   -2.585300
H      2.610200    0.399100   -1.345500
H      3.393500   -1.999800   -1.336500
H      1.758200   -2.499600   -0.863800
H      1.923500   -1.045200    1.173600
H      3.109800   -2.361100    1.144100
H      4.645100   -0.772300    0.491500
H     -3.537600    2.146200    1.809200
H     -4.447600    0.510600    0.129700
H     -1.613700   -0.574400   -2.280700
H     -3.374700   -0.713300   -2.052300
H     -3.013800   -2.472100   -0.329300
H     -2.294600   -2.912100   -1.896800
H     -0.372600   -1.751400   -0.745000
