31
 xtb: 6.6.1 (8d0f1dd)
C     -3.713600   -1.127600   -0.279300
C     -2.592500   -1.909800   -0.430500
C     -1.337700   -1.332400   -0.252900
C     -1.199600    0.031300    0.077900
C     -2.352900    0.810100    0.228000
C     -3.596700    0.231600    0.049300
C     -4.837300    1.028700    0.197900
O     -5.954000    0.570800    0.047300
O     -4.622700    2.295100    0.511500
N      0.026100    0.592300    0.249700
C      1.110100   -0.138700    0.107700
C      0.987400   -1.559200   -0.235000
C      2.061900   -2.375200   -0.396500
C      3.385500   -1.879600   -0.235400
O      4.404700   -2.565900   -0.367500
C      3.525600   -0.431000    0.116100
C      2.415700    0.402700    0.277200
C      2.652400    1.831100    0.622300
O      3.799300    2.288900    0.765900
N      1.588900    2.617000    0.775000
N      4.777900   -0.037000    0.254500
O     -0.234300   -2.102300   -0.402600
H     -4.701800   -1.539600   -0.409300
H     -2.656700   -2.955300   -0.682600
H     -2.256300    1.852600    0.481000
H     -5.452900    2.801400    0.604200
H      1.922200   -3.414200   -0.649700
H      0.661400    2.222300    0.653800
H      1.745100    3.584000    1.008700
H      5.498400   -0.733700    0.113000
H      4.946400    0.941300    0.491200
