28
 xtb: 6.6.1 (8d0f1dd)
O     -0.763100    1.980100   -1.796100
C     -0.615500    1.102400   -0.916500
C      0.687000    0.660600   -0.477800
C      0.839500   -0.338200    0.532400
C      2.130900   -0.742300    0.929800
N      2.362700   -1.664200    1.866700
C      3.274000   -0.136900    0.299700
O      4.472300   -0.572800    0.723400
C      3.113100    0.817500   -0.664300
C      1.829300    1.230000   -1.064300
O      1.773200    2.168400   -2.010500
C     -1.787400    0.482000   -0.294900
C     -3.065300    0.871600   -0.696600
C     -4.185900    0.300900   -0.127500
C     -4.044400   -0.670200    0.855800
C     -2.784500   -1.063100    1.261900
C     -1.643500   -0.496300    0.695200
C     -0.317900   -0.943400    1.153000
O     -0.239900   -1.812500    2.040800
H      1.564900   -2.098700    2.314700
H      3.315700   -1.900400    2.087800
H      5.199900   -0.128100    0.259800
H      3.956200    1.284900   -1.148700
H      0.814300    2.364700   -2.198000
H     -3.147800    1.628700   -1.462600
H     -5.168900    0.609600   -0.447100
H     -4.918200   -1.118300    1.302700
H     -2.650600   -1.816000    2.024500
