58

C      2.418085    5.073205    1.164788
C      1.550080    3.903735    0.797162
C      2.070682    2.745677    0.354593
C      1.275350    1.561679    0.049649
C     -0.228230    1.671827    0.297471
C     -0.730572    3.116701    0.113127
C      0.070379    4.106414    0.955153
C     -1.008809    0.645810   -0.588724
O     -0.444260   -0.671293   -0.409008
C      0.931748   -0.791976   -0.504055
C      1.777110    0.380630   -0.379558
C      3.215656    0.202881   -0.784180
O      3.843377    1.105112   -1.324482
C      3.797667   -1.162890   -0.629639
C      2.905344   -2.261171   -0.642570
C      1.448952   -2.018778   -0.656625
O      0.624482   -3.129284   -0.754814
C      3.447760   -3.558754   -0.606080
C      4.819017   -3.777718   -0.532611
C      5.682116   -2.690800   -0.474824
C      5.188442   -1.377491   -0.517129
Br     6.449058    0.045368   -0.321184
O      7.028167   -2.919758   -0.367721
O      2.677019   -4.691482   -0.630369
C     -0.997977    0.985850   -2.094032
C     -2.478255    0.532676   -0.089257
C     -3.301454   -0.568960   -0.772322
C     -4.680874   -0.659153   -0.177784
C     -5.128773   -1.560616    0.717865
C     -4.294870   -2.644526    1.343671
C     -6.560650   -1.532614    1.185935
H      3.484002    4.850280    1.049508
H      2.248113    5.356691    2.208566
H      2.186538    5.933110    0.527946
H      3.152380    2.675273    0.257679
H     -0.376139    1.396611    1.353392
H     -1.785647    3.203715    0.392183
H     -0.654432    3.416904   -0.939632
H     -0.206511    5.122426    0.649426
H     -0.193911    4.002676    2.014403
H     -0.290150   -2.776955   -0.705994
H      5.188401   -4.798523   -0.503350
H      7.199361   -3.876116   -0.371379
H      1.742316   -4.403022   -0.702288
H     -1.648969    1.835729   -2.322160
H      0.006750    1.230583   -2.453520
H     -1.326523    0.129859   -2.693895
H     -2.998591    1.488913   -0.218830
H     -2.462696    0.320487    0.988830
H     -2.787045   -1.532911   -0.720834
H     -3.417828   -0.348002   -1.839561
H     -5.376710    0.094483   -0.547476
H     -4.375022   -2.597651    2.435114
H     -4.646369   -3.627547    1.014286
H     -3.232242   -2.567540    1.101936
H     -7.051268   -2.484800    0.959202
H     -6.603401   -1.367182    2.267367
H     -7.140176   -0.737794    0.704830
