58
 xtb: 6.6.1 (8d0f1dd)
C      2.316000    5.043200    1.220000
C      1.473200    3.882800    0.828900
C      2.008600    2.737000    0.355100
C      1.242400    1.576700    0.051900
C     -0.245000    1.642400    0.295800
C     -0.743400    3.069200    0.059600
C     -0.004900    4.031600    0.982200
C     -0.983800    0.582000   -0.549300
O     -0.402600   -0.698700   -0.262000
C      0.961400   -0.787900   -0.409600
C      1.797500    0.370100   -0.335800
C      3.215100    0.208400   -0.665600
O      3.916600    1.162700   -1.000400
C      3.760100   -1.161400   -0.626100
C      2.887700   -2.274200   -0.631300
C      1.470800   -2.040000   -0.581300
O      0.617100   -3.116400   -0.648200
C      3.437600   -3.574800   -0.680800
C      4.813300   -3.746500   -0.696400
C      5.677800   -2.662500   -0.649900
C      5.138200   -1.377500   -0.620800
Br     6.425400    0.025600   -0.492200
O      7.015300   -2.801600   -0.633300
O      2.701000   -4.700300   -0.705800
C     -0.867200    0.875200   -2.049100
C     -2.453000    0.471200   -0.108300
C     -3.216000   -0.696200   -0.747300
C     -4.638700   -0.702000   -0.271400
C     -5.139300   -1.443100    0.709700
C     -4.336900   -2.434300    1.504400
C     -6.588100   -1.365700    1.090500
H      3.372800    4.795000    1.179900
H      2.059400    5.371800    2.225800
H      2.127300    5.879700    0.547500
H      3.077800    2.668200    0.225800
H     -0.411900    1.387000    1.352600
H     -1.814500    3.130400    0.244600
H     -0.549900    3.352800   -0.975500
H     -0.301400    5.060800    0.775800
H     -0.268300    3.818600    2.023700
H     -0.292500   -2.784000   -0.589900
H      5.194000   -4.755300   -0.730600
H      7.274200   -3.735800   -0.653600
H      1.747800   -4.486000   -0.692400
H     -1.540600    1.678000   -2.329900
H      0.151300    1.157700   -2.308600
H     -1.127000   -0.013700   -2.618100
H     -2.965200    1.399400   -0.357000
H     -2.480300    0.345700    0.976000
H     -2.722300   -1.632700   -0.495000
H     -3.210200   -0.586500   -1.832400
H     -5.289700   -0.004600   -0.782900
H     -4.762800   -2.548800    2.498200
H     -4.358500   -3.409600    1.017800
H     -3.301300   -2.124300    1.606000
H     -7.040400   -2.355200    1.040000
H     -6.689000   -1.007600    2.114600
H     -7.135100   -0.695900    0.432500
