36
 xtb: 6.6.1 (8d0f1dd)
O      0.703100   -1.803200    1.826900
C     -0.349100   -1.289900    1.490000
N     -1.485700   -1.629100    2.197800
C     -2.782500   -1.363300    1.873300
O     -3.717500   -1.753200    2.556800
C     -0.547200   -0.324700    0.381700
C     -1.882900   -0.122000   -0.051800
C     -2.962800   -0.612400    0.619500
N     -4.280000   -0.462000    0.269100
C     -4.812600    0.055200   -0.888800
C     -6.312600    0.063500   -0.880200
O     -4.128100    0.449700   -1.812700
C      0.547200    0.325400   -0.205300
C      1.882900    0.122600    0.227900
C      2.962800    0.612600   -0.443900
C      2.782300    1.363000   -1.697900
N      1.485400    1.629200   -2.022000
C      0.349000    1.290800   -1.313600
O     -0.703100    1.804500   -1.649900
O      3.717100    1.752300   -2.381900
N      4.280000    0.461800   -0.093900
C      4.812900   -0.055100    1.064100
C      6.312800   -0.064200    1.054800
O      4.128500   -0.448800    1.988400
H     -1.327400   -2.231000    3.004100
H     -2.058900    0.464200   -0.939800
H     -4.918600   -0.831600    0.972400
H     -6.687700   -0.953000   -0.792300
H     -6.674500    0.502800   -1.804600
H     -6.676600    0.642200   -0.035400
H      2.059000   -0.463300    1.116000
H      1.327100    2.231000   -2.828300
H      4.918500    0.830800   -0.797600
H      6.674900   -0.501400    1.980100
H      6.688600    0.951800    0.964200
H      6.675900   -0.645200    0.211300
