95
 xtb: 6.6.1 (8d0f1dd)
C      2.720100   -1.789000    1.690800
C      2.843600   -0.677800    0.691300
C      4.150500   -0.281700    0.279500
C      5.323300   -0.839900    0.680900
C      6.583700   -0.389600    0.212900
C      7.816100   -0.881200    0.525000
C      8.036200   -2.036400    1.454300
C      8.970400   -0.263400   -0.072000
C     10.252900   -0.602000    0.156200
C     11.405800    0.050900   -0.451700
C     11.462200    0.345800   -1.759300
C     10.436200   -0.088300   -2.765500
C     12.608900    1.096100   -2.376800
C     13.401800    1.873200   -1.337600
C     13.770400    0.925900   -0.207200
C     12.531900    0.385300    0.523200
C     12.008700    1.430300    1.519100
C     12.969900   -0.865200    1.302800
C      1.762800   -0.033600    0.149400
C      0.394700   -0.276800    0.394600
C     -0.609500    0.410400   -0.223400
C     -1.975200    0.149500    0.016200
C     -3.065800    0.749700   -0.556500
C     -2.960900    1.846000   -1.574700
C     -4.363100    0.304000   -0.172200
C     -5.550400    0.758100   -0.659200
C     -6.793400    0.248700   -0.213300
C     -8.045100    0.603700   -0.629700
C     -8.304800    1.632000   -1.688900
C     -9.167500   -0.047800   -0.021900
C    -10.467300    0.242000   -0.256000
C    -11.607100   -0.388100    0.359500
C    -11.684200   -1.731300    0.586200
C    -10.608600   -2.702600    0.188700
C    -12.871800   -2.358500    1.149200
O    -12.978900   -3.584400    1.244700
C    -14.009200   -1.473500    1.592800
C    -13.571800   -0.041400    1.840000
C    -12.779500    0.532500    0.659800
C    -12.304900    1.935100    1.065900
C    -13.654600    0.641200   -0.597400
H      1.687800   -1.970100    1.967600
H      3.131100   -2.709200    1.277500
H      3.278400   -1.542400    2.592500
H      4.197700    0.537900   -0.428400
H      5.300800   -1.661300    1.380000
H      6.546200    0.446000   -0.477400
H      7.101200   -2.457300    1.806100
H      8.596600   -2.820600    0.947700
H      8.613500   -1.713300    2.319900
H      8.763600    0.560800   -0.741500
H     10.472100   -1.374200    0.877900
H      9.807700   -0.888700   -2.385800
H     10.940700   -0.431100   -3.668400
H      9.797100    0.748600   -3.047100
H     13.269100    0.385000   -2.885400
H     12.216500    1.771600   -3.141200
H     14.303200    2.294700   -1.786500
H     12.799500    2.698900   -0.955400
H     14.328500    0.086600   -0.629200
H     14.417600    1.427700    0.515100
H     12.765200    1.650300    2.269500
H     11.116900    1.061800    2.021500
H     11.747500    2.353800    1.008200
H     13.128300   -1.702000    0.625700
H     13.905200   -0.659600    1.819500
H     12.235700   -1.150700    2.050700
H      1.971300    0.755500   -0.564800
H      0.116700   -1.049200    1.098300
H     -0.335600    1.180400   -0.931100
H     -2.173700   -0.633200    0.740500
H     -1.930800    2.134200   -1.750400
H     -3.392100    1.519100   -2.520100
H     -3.509500    2.723300   -1.235900
H     -4.393700   -0.478200    0.577600
H     -5.549900    1.532700   -1.409800
H     -6.728700   -0.515600    0.553300
H     -7.385800    1.974600   -2.150300
H     -8.813100    2.493000   -1.256200
H     -8.942800    1.214500   -2.465700
H     -8.927000   -0.789900    0.725500
H    -10.702100    1.061700   -0.918900
H     -9.928000   -2.889800    1.018700
H    -10.037400   -2.340700   -0.661800
H    -11.077900   -3.653800   -0.060200
H    -14.455600   -1.914600    2.486800
H    -14.770100   -1.517700    0.808800
H    -14.447900    0.580400    2.032300
H    -12.937000   -0.012200    2.729100
H    -13.148700    2.504900    1.447800
H    -11.551000    1.871300    1.847100
H    -11.887000    2.481700    0.226600
H    -14.542900    1.229900   -0.382300
H    -13.104800    1.127700   -1.398900
H    -13.958500   -0.341400   -0.948500
