70
 xtb: 6.6.1 (8d0f1dd)
C     -8.771200    0.589900    0.366000
C     -7.295100    0.251100    0.217000
C     -7.088600   -1.100700   -0.473700
C     -5.596100   -1.340800   -0.716500
C     -4.850000   -1.559100    0.578500
C     -3.392400   -1.287500    0.565900
C     -2.658100   -1.668700    1.687400
C     -1.277200   -1.492700    1.777200
C     -0.638900   -0.899200    0.662800
C     -1.393400   -0.527200   -0.469100
C     -2.781200   -0.697500   -0.551300
C     -3.533100   -0.306600   -1.730100
C     -5.029000   -0.169000   -1.543800
C     -5.321900    1.147700   -0.740100
O     -6.698700    1.297900   -0.540100
C     -4.828200    2.384100   -1.478100
O     -5.659800   -0.122500   -2.794700
O     -3.034500   -0.087800   -2.826000
O     -0.610100    0.029800   -1.406300
C      0.647000    0.023500   -0.917000
C      0.706100   -0.530300    0.344200
C      1.963200   -0.637900    1.073200
O      2.024100   -1.115200    2.212900
C      3.135100   -0.142100    0.360800
C      3.045900    0.434200   -0.940300
C      1.783100    0.551400   -1.647700
O      1.663800    1.059100   -2.774400
C      4.205400    0.930500   -1.559600
O      4.200600    1.505600   -2.752200
C      5.462800    0.824200   -0.906800
C      5.558900    0.223900    0.323500
C      4.388400   -0.235300    0.990700
O      4.543100   -0.727900    2.209300
C      6.889400    0.058100    1.012500
O      7.977100    0.646700    0.326500
C      7.670400    1.797900   -0.438700
C      6.676400    1.418700   -1.542600
C      8.979400    2.329500   -1.004400
C      7.244600   -1.424000    1.180200
O     -0.526100   -1.837300    2.810600
C     -1.124200   -2.435200    3.953700
O     -5.402500   -1.974300    1.579600
H     -8.877000    1.561300    0.839100
H     -9.262800   -0.164000    0.971700
H     -9.233800    0.629300   -0.615500
H     -6.811100    0.222300    1.209200
H     -7.490600   -1.893600    0.155300
H     -7.601500   -1.090400   -1.435200
H     -5.470500   -2.257600   -1.306900
H     -3.213300   -2.121700    2.493900
H     -4.812100    1.045700    0.237800
H     -5.051500    3.265700   -0.885400
H     -3.757700    2.322600   -1.655100
H     -5.351400    2.460600   -2.426700
H     -4.964300   -0.015300   -3.470000
H      3.277300    1.518000   -3.118100
H      3.656100   -1.010600    2.569800
H      6.801000    0.518400    2.012900
H      7.204700    2.555700    0.214100
H      7.146200    0.688600   -2.205400
H      6.393300    2.284600   -2.140100
H      9.656600    2.576500   -0.192400
H      9.445300    1.567900   -1.622600
H      8.792800    3.216700   -1.600600
H      8.248300   -1.488500    1.588400
H      6.545500   -1.908000    1.852000
H      7.228100   -1.915100    0.211300
H     -0.298600   -2.613500    4.638100
H     -1.850000   -1.760800    4.411100
H     -1.603600   -3.380000    3.692400
