40
 xtb: 6.6.1 (8d0f1dd)
C      0.613300    1.414200    0.293100
C     -0.550600    0.753700    0.091900
C     -0.986500   -0.546700    0.484700
C     -2.108100   -1.053500   -0.212700
C     -2.791200   -2.172900    0.266800
C     -2.348500   -2.808500    1.427300
C     -1.201000   -2.377200    2.082100
C     -0.463400   -1.256700    1.609800
C      0.778700   -0.974700    2.289100
O      1.103100   -1.615600    3.337400
C      1.840700   -0.082800    1.828400
C      1.791100    0.978800    0.950700
C      3.015400    1.752900    0.781000
C      3.299500    2.532000   -0.261100
C      4.569700    3.315600   -0.386700
O      5.153600    3.214700   -1.671800
O      3.013000   -0.314900    2.464000
O     -0.862500   -3.122600    3.158800
O     -3.055300   -3.884800    1.879900
O     -3.870900   -2.644000   -0.386500
C     -2.618100   -0.492600   -1.460600
C     -1.889100   -0.003100   -2.460500
C     -2.462300    0.510200   -3.748400
O     -3.866600    0.612200   -3.781500
H      0.679600    2.408100   -0.124800
H     -1.291300    1.290600   -0.484500
H     -0.029100   -2.726900    3.537200
H      3.744400    1.636400    1.571300
H      2.628900    2.627400   -1.103300
H      5.286200    3.018400    0.389600
H      4.349600    4.381800   -0.262000
H      5.391600    2.292800   -1.839600
H      2.826500   -0.997200    3.149800
H     -2.617100   -4.229100    2.675700
H     -4.222800   -3.414400    0.092800
H     -3.687200   -0.597200   -1.594500
H     -0.810300    0.027100   -2.410700
H     -2.001500    1.481600   -3.983800
H     -2.199100   -0.180500   -4.557000
H     -4.152500    1.247100   -3.110300
