37
 xtb: 6.6.1 (8d0f1dd)
C      4.053200   -1.244200   -0.100600
N      2.613300   -1.274200   -0.123500
C      1.874200   -0.124200    0.000900
C      0.466400   -0.234300   -0.023900
C     -0.222400   -1.479200   -0.170800
C      0.614200   -2.613200   -0.292200
C      1.964800   -2.481900   -0.266100
C     -1.655500   -1.472300   -0.181800
C     -2.414700   -2.643900   -0.320500
C     -3.797300   -2.619800   -0.329400
C     -4.475500   -1.421900   -0.200000
C     -3.760700   -0.237400   -0.060100
C     -2.373900   -0.246600   -0.049400
N     -1.660700    0.921000    0.088900
C     -0.294200    0.924700    0.101000
C      0.221500    2.203400    0.250600
C     -0.916600    3.177000    0.351100
C     -2.170100    2.275100    0.236300
C      1.590000    2.314500    0.275400
C      2.431400    1.161600    0.151900
N      3.762700    1.466600    0.198600
C      3.981500    2.712200    0.342800
S      2.566000    3.748400    0.447900
H      4.432900   -0.619600   -0.909300
H      4.435800   -2.254900   -0.212500
H      4.408700   -0.822400    0.839700
H      0.195500   -3.598200   -0.407400
H      2.610100   -3.339100   -0.357600
H     -1.909100   -3.590700   -0.422900
H     -4.346400   -3.543700   -0.438300
H     -5.554500   -1.398000   -0.206500
H     -4.290900    0.696500    0.040700
H     -0.890600    3.715200    1.299700
H     -0.874000    3.915500   -0.450800
H     -2.778100    2.540800   -0.633500
H     -2.796400    2.342000    1.130800
H      4.959300    3.145200    0.401100
