37

C      4.093582   -1.199744   -0.098030
N      2.614852   -1.228675   -0.114835
C      1.839658   -0.115735    0.003831
C      0.439722   -0.235122   -0.022512
C     -0.213647   -1.467230   -0.167825
C      0.619029   -2.577802   -0.285656
C      2.010575   -2.438370   -0.257079
C     -1.715935   -1.499474   -0.185367
C     -2.456423   -2.684884   -0.326387
C     -3.853969   -2.661247   -0.336639
C     -4.538973   -1.456948   -0.206628
C     -3.834063   -0.262832   -0.064961
C     -2.435735   -0.261060   -0.051880
N     -1.698564    0.906082    0.086868
C     -0.302304    0.915855    0.100820
C      0.249281    2.177166    0.248469
C     -0.869777    3.178955    0.351193
C     -2.148094    2.291962    0.240226
C      1.640218    2.295516    0.274531
C      2.470390    1.159999    0.153792
N      3.832699    1.453713    0.199448
C      4.017598    2.747713    0.347318
S      2.608416    3.707061    0.442794
H      4.439815   -0.608401   -0.948756
H      4.485120   -2.215127   -0.209193
H      4.423206   -0.813849    0.869303
H      0.209848   -3.578392   -0.402496
H      2.649699   -3.313708   -0.350075
H     -1.975030   -3.651810   -0.431386
H     -4.412388   -3.588767   -0.446798
H     -5.626732   -1.447073   -0.215540
H     -4.392587    0.663370    0.034703
H     -0.840548    3.703933    1.310921
H     -0.824794    3.903558   -0.467633
H     -2.747320    2.605084   -0.622902
H     -2.761531    2.404893    1.141924
H      5.004704    3.191389    0.406433
