34
 xtb: 6.6.1 (8d0f1dd)
C      3.767900    0.699500   -0.648300
O      2.583900   -0.057400   -0.367500
C      2.229400   -0.158000    0.893100
O      2.845000    0.293300    1.837500
C      0.982700   -1.018900    1.107600
C      1.330000   -2.517000    0.829600
C      0.099900   -3.323900    0.518500
C     -1.007600   -2.787600    0.007000
C     -1.103200   -1.359900   -0.213600
C     -0.142500   -0.507400    0.242600
C     -0.248100    0.913100    0.038900
O      0.619600    1.708400    0.457800
C     -1.427700    1.334500   -0.693800
C     -1.676700    2.699800   -0.972400
C     -2.819600    3.052900   -1.681100
C     -3.710000    2.082300   -2.108500
C     -3.490200    0.743400   -1.844500
C     -2.352800    0.372400   -1.137900
O     -2.173800   -0.951000   -0.897100
O     -0.835000    3.659100   -0.571100
O      2.305900   -2.711000   -0.165400
O      0.591600   -0.905400    2.460200
H      3.841200    0.734400   -1.730300
H      4.632500    0.202300   -0.208500
H      3.670200    1.699800   -0.225500
H      1.786500   -2.889400    1.754500
H      0.194800   -4.388800    0.657300
H     -1.865300   -3.379200   -0.268600
H     -2.988400    4.097400   -1.884100
H     -4.590200    2.378100   -2.655500
H     -4.175900   -0.020500   -2.168300
H     -0.083700    3.244400   -0.081600
H      1.928800   -2.540200   -1.040700
H      1.280800   -0.399700    2.930400
