43

C      5.583304    0.289586   -0.580011
C      4.464213    1.251446   -0.287762
O      4.569855    2.458513   -0.477336
N      3.321039    0.666169    0.189453
C      2.121216    1.448928    0.483030
C      1.300466    1.838848   -0.758110
S      1.175711    0.625178   -2.131301
C      0.603696   -0.822305   -1.333392
C      1.388619   -1.916657   -1.285848
C      0.871153   -3.162587   -0.629283
O      1.556682   -4.181093   -0.568088
C     -0.485767   -3.156754   -0.077192
C     -1.261387   -2.074378   -0.123370
C     -0.778049   -0.800750   -0.741028
N     -1.507196    0.276372   -0.750232
C     -2.781777    0.204596   -0.173263
C     -3.277084   -0.973929    0.396608
O     -2.535470   -2.128934    0.428104
C     -4.552888   -1.020673    0.961895
C     -5.350646    0.123953    0.963207
C     -4.860629    1.305434    0.398330
C     -3.582100    1.347107   -0.167768
C     -5.707848    2.514606    0.405464
O     -5.322307    3.582964   -0.050846
N      2.667418   -2.011515   -1.801932
C      1.253485    0.714723    1.498504
O      1.220512   -0.494059    1.684867
O      0.456345    1.537760    2.207935
H      6.495938    0.644111   -0.092261
H      5.739240    0.244191   -1.661594
H      5.360633   -0.717011   -0.214003
H      3.263211   -0.345286    0.274833
H      2.459438    2.367188    0.981911
H      1.779227    2.713857   -1.213952
H      0.294219    2.164387   -0.475566
H     -0.821795   -4.081024    0.376515
H     -4.922722   -1.945141    1.397771
H     -6.343844    0.082656    1.403660
H     -3.205525    2.267166   -0.610050
H     -6.712628    2.410097    0.848324
H      3.011462   -1.267018   -2.399878
H      3.103305   -2.932535   -1.800893
H     -0.050724    0.951811    2.808517
