68
 xtb: 6.6.1 (8d0f1dd)
O     -1.390500   -2.352600   -1.611500
C     -2.197500   -1.390100   -1.084700
C     -1.613300   -0.470900   -0.237400
C     -0.173900   -0.613600    0.076300
C      0.745600    0.339200   -0.303100
O      0.305100    1.486300   -0.931900
C      0.068000    1.354800   -2.321600
C      2.129700    0.184200   -0.001800
C      2.534800   -0.976600    0.714400
C      1.577500   -1.938600    1.089200
C      0.251100   -1.775700    0.780100
O     -0.736400   -2.638000    1.111600
C     -0.401700   -3.800300    1.850400
C      3.887300   -1.163600    1.046800
C      4.824500   -0.231900    0.680000
O      6.117200   -0.465900    1.031700
C      7.076200    0.406800    0.694300
C      6.821400    1.539800    0.000100
C      5.489300    1.881200   -0.421100
O      5.238700    2.923300   -1.066200
C      4.459400    0.928100   -0.044000
C      3.112200    1.135000   -0.385900
O      2.755900    2.213900   -1.079200
C      8.424500   -0.010000    1.166500
C     -2.401600    0.568100    0.314200
C     -3.781300    0.667000   -0.022400
C     -4.359900   -0.287100   -0.892600
O     -5.650500   -0.208000   -1.208100
C     -3.567400   -1.320900   -1.424400
C     -4.127000   -2.315100   -2.321300
O     -5.330300   -2.311900   -2.666700
C     -3.199400   -3.308300   -2.791500
C     -1.897600   -3.285600   -2.425100
C     -0.882600   -4.284400   -2.863700
C     -4.545400    1.740400    0.544100
O     -5.849000    1.796700    0.202100
C     -6.656800    2.830100    0.734800
C     -3.941400    2.642400    1.383000
C     -2.577000    2.524200    1.713200
O     -2.113100    3.486300    2.549100
C     -0.738400    3.480100    2.890200
C     -1.827100    1.494800    1.202300
H     -0.307700    2.321400   -2.646800
H      0.996000    1.123500   -2.852900
H     -0.676900    0.579500   -2.524000
H      1.923900   -2.802200    1.631100
H      0.032900   -3.537700    2.817300
H      0.288900   -4.435600    1.291400
H     -1.343500   -4.322700    2.001700
H      4.197200   -2.038800    1.592300
H      7.615100    2.220200   -0.256800
H      3.572100    2.764000   -1.249200
H      8.435100   -0.039300    2.254300
H      9.182700    0.679000    0.813700
H      8.640700   -1.014600    0.809900
H     -5.868100   -0.962100   -1.827300
H     -3.574800   -4.071600   -3.451500
H     -1.175600   -4.737700   -3.804000
H     -0.797300   -5.066400   -2.110800
H      0.086100   -3.802100   -2.960700
H     -7.646300    2.653900    0.320100
H     -6.696200    2.775600    1.825400
H     -6.294300    3.812900    0.424000
H     -4.477000    3.467800    1.819300
H     -0.480800    2.585700    3.462700
H     -0.592200    4.366000    3.503600
H     -0.112100    3.537400    1.996200
H     -0.786600    1.385200    1.450800
