130
 xtb: 6.6.1 (8d0f1dd)
C      3.051600   -3.132500   -2.475000
C      3.349200   -2.339500   -1.237000
C      4.711200   -2.120500   -0.883900
C      5.805500   -2.561800   -1.563900
C      7.124500   -2.261100   -1.152100
C      8.299500   -2.638600   -1.741500
C      8.368400   -3.502900   -2.965100
C      9.525500   -2.181400   -1.168400
C     10.776700   -2.445800   -1.622800
C     11.942600   -1.921900   -1.000400
C     13.222300   -2.158300   -1.386200
C     13.536900   -3.078500   -2.532700
C     14.360900   -1.568600   -0.708500
C     14.327600   -0.467800    0.050400
C     15.426600    0.240800    0.793800
C     15.580900    1.662700    0.203300
C     15.696400    2.795600    1.232300
C     14.368100    3.507400    1.553100
C     14.655300    4.699400    2.477000
C     13.360600    2.572600    2.231200
O     13.847400    3.972200    0.310300
C     16.771000   -0.523800    0.887100
C     17.471700   -0.676700   -0.479300
C     17.727300    0.179500    1.857400
O     16.547500   -1.801900    1.486600
C      2.373300   -1.809200   -0.433500
C      0.974800   -1.861600   -0.606900
C      0.097100   -1.293100    0.271200
C     -1.300700   -1.308100    0.086400
C     -2.265800   -0.773300    0.900100
C     -1.955300   -0.088700    2.198500
C     -3.627300   -0.862600    0.492400
C     -4.703900   -0.371900    1.166800
C     -6.024900   -0.476000    0.673300
C     -7.176900   -0.020800    1.253500
C     -7.211800    0.669500    2.584800
C     -8.410400   -0.203100    0.556400
C     -9.636600    0.202000    0.974500
C    -10.812800    0.000200    0.203300
C    -12.085300    0.365800    0.512500
C    -12.468000    1.057700    1.785400
C    -13.134500    0.079000   -0.438200
C    -14.431100    0.375400   -0.296900
C    -15.466700    0.058300   -1.325500
C    -16.229000    1.324600   -1.772800
C    -17.010100    2.080100   -0.698000
C    -17.628900    3.410500   -1.188200
C    -18.533200    3.967700   -0.083300
C    -16.549500    4.441900   -1.530600
O    -18.479900    3.188800   -2.309500
C    -16.372400   -1.138100   -0.875700
C    -16.745800   -1.088100    0.609300
C    -15.608700   -2.440000   -1.144900
O    -17.541900   -1.206400   -1.681500
H      1.985000   -3.244100   -2.634200
H      3.480600   -2.640100   -3.346700
H      3.491300   -4.125600   -2.395100
H      4.880500   -1.533400    0.011700
H      5.666100   -3.152900   -2.455600
H      7.198900   -1.645100   -0.262300
H      7.383400   -3.805400   -3.301600
H      8.948700   -4.399800   -2.753500
H      8.859500   -2.964800   -3.774600
H      9.430600   -1.554100   -0.289200
H     10.910400   -3.069000   -2.493000
H     11.767100   -1.291100   -0.138800
H     13.136200   -4.074500   -2.349600
H     14.610100   -3.162000   -2.681500
H     13.095100   -2.701900   -3.453900
H     15.295400   -2.078700   -0.896000
H     13.376300    0.039900    0.154800
H     15.069000    0.337900    1.826800
H     14.726600    1.886600   -0.438000
H     16.459700    1.676200   -0.438500
H     16.122400    2.431000    2.164900
H     16.366000    3.557700    0.829300
H     15.318600    5.403300    1.980000
H     13.732000    5.214900    2.733200
H     15.127400    4.359300    3.393900
H     13.798400    2.127600    3.119800
H     12.472400    3.128000    2.527200
H     13.058900    1.784200    1.548600
H     13.028100    4.456400    0.475900
H     18.246600    0.075400   -0.595400
H     16.776900   -0.581000   -1.307400
H     17.948300   -1.653900   -0.521300
H     17.988600    1.169700    1.502500
H     18.629800   -0.419900    1.947200
H     17.271500    0.249400    2.842000
H     15.787100   -2.225300    1.067300
H      2.707600   -1.268500    0.445500
H      0.568900   -2.361800   -1.475400
H      0.506400   -0.799600    1.141900
H     -1.642000   -1.795300   -0.820700
H     -0.894900   -0.111300    2.422100
H     -2.277000    0.951300    2.159300
H     -2.486500   -0.578600    3.013200
H     -3.809700   -1.361300   -0.452800
H     -4.546500    0.126800    2.110400
H     -6.121200   -0.970200   -0.287500
H     -7.599600    1.680800    2.470400
H     -7.867400    0.129100    3.266000
H     -6.227600    0.728900    3.035000
H     -8.343000   -0.706700   -0.401300
H     -9.729200    0.705400    1.924100
H    -10.657500   -0.500600   -0.746100
H    -13.206900    0.465300    2.322800
H    -12.909200    2.028000    1.562400
H    -11.614200    1.210300    2.435500
H    -12.813900   -0.420700   -1.345300
H    -14.780000    0.874700    0.592400
H    -14.953500   -0.293900   -2.228600
H    -15.475400    1.990100   -2.199700
H    -16.910000    1.030000   -2.574400
H    -17.836200    1.464700   -0.339100
H    -16.362200    2.313200    0.146100
H    -17.966200    4.125900    0.828500
H    -19.345400    3.272600    0.112900
H    -18.965900    4.911000   -0.405100
H    -17.020300    5.373300   -1.836500
H    -15.925900    4.634200   -0.662700
H    -15.916600    4.095800   -2.344100
H    -17.936200    3.026700   -3.091000
H    -17.457200   -1.884900    0.818600
H    -15.861200   -1.247400    1.218600
H    -17.195900   -0.139500    0.884100
H    -16.171600   -3.284900   -0.757300
H    -14.632900   -2.407500   -0.670000
H    -15.486100   -2.576000   -2.216400
H    -18.170200   -0.533200   -1.389700
