28
 xtb: 6.6.1 (8d0f1dd)
C     -4.196500    0.326100   -0.009200
C     -3.989500    1.672500   -0.326600
C     -2.715100    2.159200   -0.460600
C     -1.609400    1.306300   -0.279500
C     -1.817500   -0.063200    0.043500
C     -3.132700   -0.526400    0.172800
C     -0.650400   -0.884800    0.216500
C      0.617000   -0.281300    0.055000
C      1.772600   -1.084900    0.224600
N      1.716200   -2.368100    0.525700
C      0.519500   -2.928000    0.675100
C     -0.673600   -2.252700    0.536100
C      3.055500   -0.440400    0.054200
C      3.127600    0.910300   -0.261900
C      1.996600    1.787300   -0.452300
O      2.105000    2.974300   -0.735700
C      0.682200    1.110800   -0.271700
N     -0.379700    1.848400   -0.426500
S      4.779000    1.397500   -0.398600
C      5.223000   -0.236700   -0.023900
N      4.253300   -1.054300    0.180000
H     -5.203500   -0.046500    0.093600
H     -4.836600    2.325200   -0.465400
H     -2.516800    3.190000   -0.704300
H     -3.316000   -1.560000    0.417100
H      0.540500   -3.980100    0.920300
H     -1.604500   -2.775300    0.672800
H      6.253900   -0.525100    0.029200
