38

C     -5.030249    1.857809    0.202755
C     -3.705664    1.172649    0.037174
C     -2.517570    1.820730    0.390964
C     -1.271425    1.195826    0.201603
C     -1.191401   -0.093900   -0.327482
C     -2.383463   -0.757040   -0.655979
C     -3.617945   -0.107956   -0.505715
O     -4.765697   -0.735111   -0.912113
O     -2.414851   -2.016561   -1.203040
C     -2.445976   -3.007745   -0.169739
C      0.141815   -0.709842   -0.534263
O      0.267042   -1.851498   -0.968005
C      1.375905    0.044133   -0.211047
C      2.654013   -0.524432   -0.435739
C      3.812424    0.198668   -0.119894
C      3.663930    1.483372    0.422374
C      2.418753    2.052791    0.648255
C      1.269828    1.327109    0.327482
C     -0.049668    1.937302    0.567447
O     -0.132771    3.053533    1.065516
O      4.769843    2.223133    0.748147
O      5.126268   -0.170240   -0.260795
C      5.418191   -1.433958   -0.841816
O      2.770841   -1.787538   -0.961522
H     -5.722584    1.221457    0.763570
H     -4.928371    2.797135    0.756379
H     -5.461223    2.087087   -0.776945
H     -2.556609    2.828797    0.804848
H     -4.481925   -1.527234   -1.407914
H     -2.302945   -3.984864   -0.640365
H     -3.421009   -3.009231    0.329091
H     -1.649606   -2.864138    0.568407
H      2.353118    3.053499    1.069970
H      5.534356    1.657988    0.517948
H      5.055520   -2.252900   -0.213017
H      5.040797   -1.498347   -1.867128
H      6.507769   -1.526563   -0.893610
H      1.870542   -2.153919   -1.120937
