65

C     -0.353805   -3.182930    2.908518
C     -1.567578   -3.275783    1.976579
C     -2.849940   -3.332197    2.815545
C     -1.652600   -2.161366    0.895700
C     -0.429381   -2.171059   -0.092932
C     -0.868761   -2.111003   -1.590304
C     -1.145358   -0.740613   -2.253541
C     -2.425611   -0.015492   -1.813236
C     -2.178787    1.469156   -1.487648
C     -3.352820    2.083969   -0.716122
C     -3.070153    3.456043   -0.091112
C     -1.927264    3.568857    0.935094
C     -2.042249    2.688435    2.190040
C     -1.507351    1.308414    1.933240
N     -0.275994    1.083767    1.552783
C     -0.318760   -0.203118    1.118234
C      0.423980   -0.971245    0.318942
C      1.713614   -0.586387   -0.149606
C      2.710830   -1.358990   -0.736695
C      3.802642   -0.507887   -1.040403
C      3.440591    0.764744   -0.642454
O      2.188421    0.705204   -0.107067
C      4.179634    1.988982   -0.735215
C      3.754616    3.303613   -0.666863
C      4.892130    4.137377   -0.811008
C      5.987719    3.317392   -0.958584
N      5.545177    2.020688   -0.910281
Cl     2.174564    3.904329   -0.470772
O      2.561943   -2.692878   -0.933346
C      3.677573   -3.327548   -1.541633
C     -1.589662   -0.772493    1.427456
C     -2.392573    0.124557    1.987904
H     -0.339653   -4.032660    3.600279
H      0.586964   -3.207582    2.351000
H     -0.372895   -2.269717    3.511972
H     -1.494756   -4.234175    1.444276
H     -2.967325   -2.441281    3.440378
H     -2.836054   -4.203370    3.479951
H     -3.733246   -3.420372    2.174186
H     -2.585721   -2.310740    0.339398
H      0.131564   -3.103233    0.046454
H     -1.733612   -2.768509   -1.744175
H     -0.054552   -2.566579   -2.171423
H     -0.268918   -0.092410   -2.152335
H     -1.232860   -0.921504   -3.333632
H     -3.166045   -0.075508   -2.621246
H     -2.886267   -0.518291   -0.962653
H     -1.256685    1.570047   -0.913516
H     -2.019196    2.026315   -2.418895
H     -3.703889    1.404838    0.064233
H     -4.198317    2.190384   -1.408070
H     -2.864961    4.167486   -0.901438
H     -3.994277    3.803472    0.388623
H     -0.968572    3.404100    0.431057
H     -1.909120    4.614129    1.271090
H     -3.076657    2.643761    2.545147
H     -1.433003    3.121881    2.991865
H      4.736243   -0.778708   -1.507943
H      4.905673    5.219365   -0.804926
H      7.037875    3.542961   -1.088270
H      6.138957    1.205361   -0.971338
H      4.571851   -3.242089   -0.914922
H      3.862832   -2.926583   -2.543891
H      3.443176   -4.391413   -1.645469
H     -3.423341    0.076081    2.275710
