48

O      3.224147    2.100067   -1.644163
C      2.420746    1.344115   -1.098320
C      2.819531    0.056330   -0.445547
C      4.227788   -0.384352   -0.417656
C      4.858079   -0.719886    0.790545
C      6.191064   -1.138024    0.806878
C      6.911175   -1.220668   -0.382473
C      6.300939   -0.883467   -1.588275
C      4.967497   -0.466823   -1.606014
C      1.827164   -0.677206    0.087039
C      0.446392   -0.287210    0.066199
C      0.021872    0.976338   -0.532421
C     -1.372711    1.464981   -0.565966
C     -2.128515    1.373174   -1.744428
C     -3.458816    1.795327   -1.762275
C     -4.032979    2.308797   -0.605788
O     -5.340786    2.690531   -0.662366
C     -3.294664    2.425467    0.567675
C     -1.961036    2.008793    0.584980
C      0.974363    1.755709   -1.090720
O      0.694396    2.977419   -1.687507
C     -0.258188   -1.251222    0.671593
C     -1.686731   -1.372663    0.944247
C     -2.591750   -1.656760   -0.087256
C     -3.962424   -1.731915    0.174255
C     -4.422859   -1.536534    1.471930
O     -5.752364   -1.587174    1.768951
C     -3.536909   -1.281393    2.511182
C     -2.167964   -1.201561    2.249384
O      1.992879   -1.897189    0.713275
C      0.732753   -2.263065    1.096767
O      0.473336   -3.285665    1.710221
H      4.320094   -0.658338    1.733976
H      6.666998   -1.397697    1.749122
H      7.948890   -1.543972   -0.369427
H      6.863274   -0.940280   -2.516851
H      4.515708   -0.201546   -2.559773
H     -1.687430    0.971918   -2.653255
H     -4.044880    1.721509   -2.673522
H     -5.604899    3.010367    0.216137
H     -3.736206    2.827743    1.473684
H     -1.390064    2.097833    1.505783
H      1.562267    3.318886   -1.993883
H     -2.240850   -1.805304   -1.105835
H     -4.647955   -1.933541   -0.642642
H     -6.244311   -1.757000    0.948562
H     -3.910411   -1.143571    3.521781
H     -1.485647   -1.001277    3.072197
