28

C     -1.386932   -2.285254    1.379487
N     -0.801957   -1.071679    0.844809
C      0.503437   -0.970780    0.389229
C      0.674517    0.329314    0.015654
C     -0.512597    1.049125    0.201651
C     -1.441077    0.158835    0.687954
S     -3.119838    0.384645    1.084313
C     -3.811730    0.653791   -0.564686
C     -0.539118    2.438467   -0.127943
C      0.600471    2.982147   -0.615476
N      1.770992    2.250806   -0.803805
C      1.880059    0.890345   -0.501977
C      2.956212    0.090928   -0.643895
C      2.889884   -1.369888   -0.268665
C      1.555728   -1.937316    0.278085
O      1.490757   -3.127331    0.558632
N      3.897724   -2.187264   -0.381946
Cl     4.451222    0.695249   -1.262650
H     -1.832706   -2.839844    0.550418
H     -2.140070   -2.038888    2.130431
H     -0.612868   -2.879914    1.868346
H     -3.584479   -0.193285   -1.217982
H     -3.414066    1.569846   -1.008930
H     -4.897901    0.750861   -0.487063
H     -1.435519    3.029047    0.018598
H      0.674340    4.030110   -0.887947
H      2.592501    2.721060   -1.171317
H      3.593015   -3.123134   -0.063326
