27

C      0.276376   -0.103506   -3.650409
C      0.152687    1.222265   -3.237463
C      0.029973    1.520435   -1.872604
C     -0.013321    0.493711   -0.921552
C      0.128086   -0.830702   -1.342328
C      0.275166   -1.126812   -2.702544
O      0.128627   -1.914606   -0.497762
C     -0.001241   -1.691184    0.849462
C      0.050632   -2.818650    1.673208
C     -0.081038   -2.682491    3.057044
C     -0.272713   -1.420177    3.619640
C     -0.331898   -0.298696    2.797684
C     -0.191085   -0.432033    1.411373
C     -0.246805    0.730009    0.514883
O     -0.509871    1.832626    0.980058
O     -0.529441    0.907557    3.413970
C     -0.039065    2.939441   -1.507472
O     -0.911736    3.720920   -1.828490
O      1.072669    3.292846   -0.842651
H      0.378943   -0.337998   -4.707658
H      0.163301    2.023562   -3.974529
H      0.379740   -2.161233   -3.024837
H      0.195038   -3.806007    1.239997
H     -0.036822   -3.559933    3.697858
H     -0.377683   -1.309116    4.696311
H     -0.590255    1.595439    2.712221
H      0.901735    4.214333   -0.553409
