41
 xtb: 6.6.1 (8d0f1dd)
C     -4.360200    2.588900   -1.999200
N     -4.188900    1.523000   -1.048500
C     -5.189400    0.933000   -0.349100
C     -4.670000   -0.066700    0.456600
C     -5.178100   -0.996200    1.508000
C     -4.176600   -2.168600    1.685400
N     -2.755300   -1.920800    1.584700
C     -2.353000   -0.941400    0.844500
C     -3.298400   -0.061000    0.218500
C     -3.000100    0.930600   -0.707900
C     -1.647400    1.196900   -1.064800
O     -1.252700    2.065600   -1.857200
C     -0.650800    0.322500   -0.358600
C     -0.985700   -0.658500    0.532800
N      0.620000    0.638500   -0.735400
C      1.799000    0.090500   -0.326200
C      2.989600    0.503300   -0.796800
C      4.286500   -0.012000   -0.422200
C      4.472700   -1.036900    0.513300
C      5.732600   -1.489300    0.835500
C      6.859100   -0.932700    0.232700
C      6.694200    0.085200   -0.700300
C      5.428800    0.533200   -1.017500
O      8.081600   -1.413400    0.586100
H     -4.904900    3.415500   -1.543600
H     -4.914600    2.235800   -2.869800
H     -3.378100    2.932200   -2.317200
H     -6.204200    1.257400   -0.470000
H     -5.264500   -0.444200    2.449800
H     -6.160900   -1.400300    1.265700
H     -4.335900   -2.637200    2.660100
H     -4.389100   -2.933600    0.925800
H     -0.230200   -1.269600    0.997500
H      0.657200    1.393100   -1.419400
H      1.714600   -0.698000    0.403300
H      3.000900    1.300200   -1.529500
H      3.622200   -1.488100    0.997900
H      5.872500   -2.279000    1.557100
H      7.557300    0.526600   -1.178000
H      5.317700    1.325000   -1.743800
H      8.782400   -0.949300    0.103800
