24

C      4.002161    0.782352   -0.201761
C      4.100024   -0.564176    0.149690
C      2.943450   -1.318377    0.345140
C      1.692960   -0.719065    0.187323
C      1.580847    0.633144   -0.165626
C      2.746817    1.376247   -0.358171
N      0.338023    1.268060   -0.332721
C     -0.712307    0.531488   -0.141746
C     -2.053618    1.132992   -0.300236
C     -3.184649    0.442181   -0.121298
C     -3.100331   -1.011442    0.258072
O     -4.111667   -1.686479    0.433029
C     -1.768013   -1.613929    0.416812
C     -0.650246   -0.908600    0.234071
O      0.588338   -1.512964    0.393192
N     -4.442871    0.967132   -0.259718
H      4.902251    1.372598   -0.354728
H      5.077310   -1.024843    0.271018
H      3.016469   -2.367021    0.618839
H      2.672675    2.425354   -0.631989
H     -2.067993    2.181582   -0.573844
H     -1.744198   -2.661264    0.690108
H     -5.230196    0.341300   -0.097331
H     -4.595237    1.933731   -0.512105
