43

C     -5.285873    0.011426    0.067776
C     -3.828188   -0.342472   -0.080175
C     -2.785837    0.440581    0.286763
C     -1.391514   -0.047731    0.109425
C     -0.315092    0.558024    0.776765
C      0.999544    0.105174    0.588919
C      1.259221   -0.960386   -0.266957
C      0.192037   -1.580088   -0.932665
C     -1.129434   -1.144674   -0.736922
C     -2.276258   -1.789743   -1.476003
C     -3.586288   -1.705400   -0.691756
O      0.385854   -2.625693   -1.799612
C      2.648576   -1.419593   -0.461713
O      2.884138   -2.357103   -1.222836
C      3.755749   -0.759418    0.253762
C      3.487126    0.306782    1.110914
C      2.102306    0.779180    1.304258
O      1.870117    1.723361    2.049430
C      4.532840    0.941306    1.796319
C      5.847361    0.507331    1.622816
C      6.119849   -0.558160    0.766395
C      5.079488   -1.187594    0.085752
O      5.434451   -2.224025   -0.734669
C     -3.060639    1.773637    0.894632
O     -3.689892    1.950824    1.925727
O     -2.499144    2.734532    0.116052
C     -2.692007    4.059296    0.610858
H     -5.461941    1.034943    0.405558
H     -5.763922   -0.666224    0.782603
H     -5.795826   -0.089721   -0.896543
H     -0.486275    1.392901    1.456277
H     -2.072038   -2.847031   -1.679906
H     -2.386786   -1.282665   -2.443059
H     -4.404103   -1.973022   -1.371866
H     -3.590769   -2.448526    0.116318
H      1.346221   -2.829921   -1.843398
H      4.327336    1.774630    2.466924
H      6.658918    0.999157    2.154588
H      7.143148   -0.899791    0.627917
H      4.621326   -2.580904   -1.155234
H     -3.758522    4.301529    0.653892
H     -2.228155    4.171819    1.595859
H     -2.207105    4.753450   -0.081018
