43
 xtb: 6.6.1 (8d0f1dd)
C     -5.279600   -0.124100    0.160900
C     -3.837500   -0.434700   -0.011800
C     -2.816500    0.404100    0.275300
C     -1.431300   -0.036000    0.089600
C     -0.373300    0.540200    0.796000
C      0.929700    0.119200    0.605400
C      1.221800   -0.914200   -0.309100
C      0.150200   -1.520900   -1.002600
C     -1.168400   -1.087400   -0.783500
C     -2.313800   -1.742100   -1.491700
C     -3.521800   -1.795800   -0.560700
O      0.326600   -2.513600   -1.876200
C      2.585700   -1.359500   -0.525000
O      2.845100   -2.275400   -1.340200
C      3.650100   -0.715900    0.233300
C      3.370100    0.316900    1.150900
C      1.990900    0.780700    1.378000
O      1.740900    1.680700    2.175400
C      4.392900    0.921500    1.864600
C      5.710300    0.516900    1.686800
C      6.006300   -0.489900    0.798200
C      4.992200   -1.120100    0.061100
O      5.362600   -2.086700   -0.777500
C     -3.034300    1.790400    0.746200
O     -3.894000    2.155700    1.525900
O     -2.178300    2.638600    0.172500
C     -2.277900    4.017300    0.525800
H     -5.438200    0.816400    0.677000
H     -5.753800   -0.924000    0.726700
H     -5.761100   -0.085600   -0.815700
H     -0.545600    1.322200    1.519300
H     -2.025300   -2.741000   -1.815700
H     -2.557100   -1.156600   -2.383200
H     -4.386200   -2.195300   -1.088200
H     -3.304700   -2.462100    0.279700
H      1.290500   -2.725400   -1.943900
H      4.135800    1.708400    2.556700
H      6.499600    0.992600    2.246100
H      7.018100   -0.826500    0.639100
H      4.564500   -2.450100   -1.236400
H     -3.325400    4.319900    0.563400
H     -1.822500    4.181900    1.503600
H     -1.737300    4.559400   -0.243900
