26

C      0.069492    3.119260    1.047191
N     -0.372208    1.804408    0.637515
C     -1.691912    1.398770    0.551680
C     -1.698896    0.094501    0.109653
C     -2.748611   -0.884017   -0.251410
C     -2.180324   -2.321236   -0.146711
N     -0.780823   -2.527737   -0.629217
C      0.077301   -1.574294   -0.495513
C     -0.362789   -0.287633   -0.044196
C      0.448044    0.777155    0.236751
C      1.873573    0.717113    0.077009
O      2.643692    1.634265    0.353764
C      2.415177   -0.599838   -0.505846
C      1.554788   -1.616644   -0.763336
Cl     2.145909   -3.116388   -1.418277
N      3.779879   -0.628237   -0.722372
H      0.592973    3.585103    0.208676
H     -0.797600    3.724137    1.324374
H      0.732012    3.008387    1.909139
H     -2.501467    2.076636    0.791556
H     -3.630172   -0.781504    0.389879
H     -3.063653   -0.696783   -1.285116
H     -2.212873   -2.647715    0.900752
H     -2.835294   -2.999499   -0.705155
H      4.318594    0.198820   -0.473648
H      4.225188   -1.457030   -1.097144
