26
 xtb: 6.6.1 (8d0f1dd)
C      0.064200    3.137800    1.076400
N     -0.355700    1.829800    0.649300
C     -1.639100    1.400300    0.602400
C     -1.676100    0.085100    0.164700
C     -2.726400   -0.911300   -0.196500
C     -2.114800   -2.336200   -0.173700
N     -0.756700   -2.537900   -0.628600
C      0.076900   -1.561300   -0.523100
C     -0.348600   -0.269400   -0.055600
C      0.468400    0.815800    0.237000
C      1.874600    0.745700    0.013700
O      2.699400    1.643000    0.208900
C      2.335400   -0.577100   -0.543300
C      1.480900   -1.618400   -0.794000
Cl     2.130000   -3.115200   -1.419800
N      3.659000   -0.627700   -0.766300
H      1.124100    3.252300    0.859600
H     -0.502800    3.903300    0.548100
H     -0.094900    3.255300    2.149200
H     -2.444600    2.049200    0.884400
H     -3.578900   -0.879800    0.481500
H     -3.089200   -0.685100   -1.204400
H     -2.130300   -2.715300    0.857000
H     -2.736100   -3.009500   -0.769600
H      4.197900    0.191100   -0.532200
H      4.083300   -1.464300   -1.125100
