26

C      4.479499   -0.945215   -0.366231
C      3.072318   -0.539517   -0.126077
C      2.530304    0.337736    0.795752
C      1.128943    0.357618    0.593058
C      0.856064   -0.506716   -0.445075
N      2.037237   -1.047506   -0.877011
C     -0.453000   -0.775076   -0.964459
O     -0.679966   -1.548034   -1.890091
C     -1.569876   -0.042660   -0.301756
C     -1.312017    0.846820    0.762877
C      0.076074    1.091198    1.267401
O      0.289276    1.865078    2.191886
C     -2.374251    1.528234    1.375705
C     -3.683053    1.327975    0.934702
C     -3.938959    0.448994   -0.117535
C     -2.889629   -0.232337   -0.732347
O     -3.237094   -1.073225   -1.755500
H      4.597276   -2.024584   -0.227128
H      5.157819   -0.437579    0.326906
H      4.783910   -0.690946   -1.386496
H      3.080989    0.905109    1.537022
H      2.122785   -1.717008   -1.633346
H     -2.186165    2.217095    2.198342
H     -4.505320    1.857472    1.411411
H     -4.959405    0.293208   -0.460969
H     -2.423758   -1.496137   -2.111042
