42

C      0.521239    0.955584    2.475425
C      0.618747    0.236722    1.349117
C     -0.546957   -0.174687    0.546651
C     -0.110242   -0.729912   -0.595255
C     -0.912151   -1.378805   -1.657730
N     -2.130619   -0.672392   -1.960295
C     -3.184406   -0.369194   -1.111923
C     -3.012598   -0.108931    0.209581
C     -4.254835    0.194809    0.986392
N     -5.424772    0.184752    0.299879
C     -5.471265   -0.066551   -1.027735
N     -6.687166   -0.030987   -1.611173
N     -4.418139   -0.329916   -1.726130
O     -4.211305    0.450824    2.189937
N     -1.842533   -0.027268    0.948648
C      1.387067   -0.760106   -0.654635
N      1.759122   -0.168939    0.657905
C      3.120330    0.121222    0.864298
C      3.949145    0.340567   -0.194425
N      3.464972    0.290824   -1.492566
C      2.039878    0.083014   -1.780854
N      5.265600    0.627627    0.005959
C      5.860701    0.732293    1.225192
N      5.060013    0.497107    2.297192
C      3.752276    0.101315    2.229892
O      3.183514   -0.293676    3.244450
O      7.051021    1.004223    1.343508
H     -0.428679    1.254981    2.899670
H      1.394453    1.292047    3.018234
H     -0.326190   -1.430771   -2.582017
H     -1.134852   -2.414531   -1.375399
H     -2.464031   -0.739992   -2.915996
H     -6.256820    0.390034    0.824568
H     -7.542770    0.172146   -1.119872
H     -6.732736   -0.214365   -2.605550
H     -1.999592    0.236893    1.918928
H      1.747814   -1.796648   -0.693851
H      4.073953    0.591474   -2.242298
H      1.556038    1.064200   -1.860549
H      1.932634   -0.419858   -2.747568
H      5.866355    0.789538   -0.788428
H      5.487789    0.515333    3.208823
