19
 xtb: 6.6.1 (8d0f1dd)
O      3.552300   -0.721900   -0.084600
C      2.338000   -0.184100   -0.046500
C      2.128200    1.149000   -0.000800
C      0.800000    1.727700    0.040400
O      0.624400    2.943000    0.081600
C     -0.343600    0.783600    0.030600
C     -1.640400    1.279100    0.068400
C     -2.727100    0.416300    0.060400
C     -2.527500   -0.954500    0.014700
C     -1.240300   -1.464000   -0.023500
C     -0.142000   -0.605500   -0.016200
C      1.207800   -1.158400   -0.058000
O      1.472700   -2.354600   -0.101800
H      3.466600   -1.700600   -0.114300
H      2.964900    1.831300    0.006400
H     -1.775500    2.349900    0.104200
H     -3.727700    0.817500    0.090200
H     -3.371200   -1.625900    0.008600
H     -1.059600   -2.527800   -0.059800
