64

C      9.676458   -0.286293    0.202881
C      8.501410    0.303894   -0.553941
C      7.255337    0.523093    0.314800
C      6.684014   -0.774131    0.898261
C      5.341548   -0.575326    1.607496
C      4.210584   -0.179872    0.653491
C      2.852901   -0.235024    1.350153
C      1.761238    0.408643    0.488432
C      0.362227   -0.011673    0.940703
C     -0.143304   -1.327523    0.325639
C     -0.180551   -1.392146   -1.206297
C     -0.856979   -0.230379   -1.851220
C     -0.379600    0.708612   -2.740562
C     -1.426774    1.627527   -3.001316
C     -2.515709    1.248260   -2.244905
N     -2.161573    0.101315   -1.577590
C     -3.808278    1.817989   -2.072812
C     -4.748439    1.347604   -1.242410
C     -6.058006    1.936457   -1.007639
C     -6.730417    1.243852   -0.081438
C     -5.752809    0.195767    0.234629
N     -4.630202    0.229947   -0.433454
C     -6.034238   -0.820794    1.203766
C     -6.148736   -0.703789    2.578865
C     -6.374197   -2.007124    3.099824
C     -6.358581   -2.887893    2.042019
N     -6.133900   -2.160203    0.901738
O     -6.407891    3.056541   -1.704414
C     -7.788356    3.365825   -1.767912
H      9.925289    0.315366    1.085467
H     10.557417   -0.321114   -0.436036
H      9.463840   -1.310655    0.530239
H      8.800649    1.267281   -0.979460
H      8.245650   -0.352908   -1.391313
H      7.484645    1.219464    1.127421
H      6.500066    1.014279   -0.307591
H      6.575140   -1.525266    0.109374
H      7.395468   -1.184365    1.629656
H      5.080375   -1.515324    2.105725
H      5.439641    0.182467    2.392155
H      4.388636    0.832514    0.268866
H      4.191732   -0.855275   -0.210679
H      2.908088    0.306764    2.306490
H      2.604316   -1.280424    1.580057
H      1.913099    0.178864   -0.570101
H      1.844362    1.498935    0.582764
H     -0.348197    0.783551    0.713209
H      0.337006   -0.115211    2.030190
H     -1.153749   -1.514740    0.710130
H      0.473151   -2.163825    0.673688
H      0.840555   -1.483965   -1.593857
H     -0.685383   -2.317304   -1.506643
H      0.621032    0.735305   -3.153179
H     -1.378419    2.487007   -3.656843
H     -2.782855   -0.390195   -0.939776
H     -4.024795    2.713286   -2.652006
H     -7.704181    1.376545    0.341886
H     -6.030001    0.205446    3.158000
H     -6.522278   -2.265787    4.139358
H     -6.492414   -3.961101    1.993481
H     -6.017226   -2.541801   -0.031210
H     -7.888441    4.377150   -2.170465
H     -8.291733    2.671044   -2.443707
H     -8.277658    3.351535   -0.792079
