68

C      6.056934   -2.131736    1.336919
C      6.518013   -3.093251    2.242281
C      6.415504   -2.858707    3.609979
C      5.862006   -1.676296    4.085231
C      5.390883   -0.720990    3.182638
C      5.483652   -0.936551    1.798803
C      4.973766    0.101811    0.865112
C      3.950395   -0.206926    0.035301
C      3.205936    0.540214   -0.940623
C      2.314976   -0.234877   -1.550971
C      2.475004   -1.562546   -0.952585
O      1.858916   -2.559628   -1.283275
O      3.435375   -1.519088    0.020407
C      1.338970    0.118624   -2.572637
C      0.046503    0.542971   -2.166702
C     -0.955314    0.852627   -3.121644
C     -0.533715    0.731723   -4.445872
C      0.678839    0.320876   -4.854620
C      1.660784    0.001013   -3.937228
C      0.635177    0.239415   -6.318479
O      1.503014   -0.207467   -7.039501
O     -0.621395    0.686333   -6.727311
C     -1.286821    0.931799   -5.545163
C     -2.606884    1.293574   -5.394574
C     -3.132114    1.433478   -4.104523
C     -2.325696    1.212424   -2.957329
C     -2.928816    1.216916   -1.629912
C     -3.789861    0.327938   -1.141457
C     -4.025258    0.550120    0.254485
C     -4.719047   -0.151243    1.178355
C     -4.792345    0.315678    2.587481
C     -4.408138   -0.549283    3.627376
C     -4.491375   -0.148229    4.963328
C     -4.952312    1.128885    5.266579
C     -5.327264    2.005564    4.258051
C     -5.252195    1.600183    2.920977
O     -5.042940    1.562830    6.558147
C     -5.298856   -1.472575    0.821822
O     -4.804312   -2.263339    0.036504
O     -6.421540   -1.753050    1.504381
O     -3.310128    1.707253    0.614926
C     -2.604579    2.092367   -0.497623
O     -1.823067    3.024411   -0.537502
O     -4.356987   -0.687191   -1.859867
O     -3.434687    1.471476   -6.458680
O      3.362193    1.870424   -1.206142
C      5.563943    1.463333    0.919912
O      5.022584    2.491755    0.557794
O      6.804386    1.472934    1.439317
O      6.837791   -3.779727    4.521461
H      6.144572   -2.324970    0.270713
H      6.953999   -4.013460    1.860948
H      5.789066   -1.501969    5.155227
H      4.950834    0.194391    3.571561
H     -0.180364    0.622052   -1.104748
H      2.632541   -0.351378   -4.265501
H     -4.187771    1.672091   -3.982791
H     -4.044896   -1.551624    3.404670
H     -4.198292   -0.843084    5.745550
H     -5.679628    3.003940    4.508115
H     -5.557142    2.301154    2.146408
H     -4.851239    0.816417    7.150057
H     -6.671864   -2.657060    1.219124
H     -4.296339   -1.514200   -1.336792
H     -2.927419    1.270350   -7.264151
H      3.938120    2.296997   -0.537655
H      7.078094    2.410841    1.449189
H      6.957829   -4.626738    4.064355
