39
 xtb: 6.6.1 (8d0f1dd)
O     -1.092900    3.077100   -2.632000
C     -0.532200    2.246400   -1.931500
C     -1.122200    1.231300   -1.007000
C     -2.524800    1.094200   -0.815600
C     -3.481000    1.959900   -1.328300
N     -4.714300    1.566000   -0.961200
C     -4.623200    0.425800   -0.204200
C     -3.254400    0.087400   -0.083400
C     -2.908200   -1.057700    0.629400
C     -3.910900   -1.812600    1.203100
C     -5.254200   -1.456500    1.082600
C     -5.629900   -0.333500    0.374400
C     -0.078500    0.544700   -0.456500
N      0.816100    2.070600   -1.859000
C      1.147700    1.059900   -0.978600
C      2.451100    0.711200   -0.739300
C      3.580700    1.372700   -1.420600
N      4.718600    0.782900   -0.971300
C      4.431800   -0.207100   -0.040800
C      5.294500   -1.025300    0.653800
C      4.751400   -1.943200    1.542700
C      3.373600   -2.031700    1.726900
O      2.817800   -2.921200    2.592900
C      2.504600   -1.201100    1.021700
C      3.033100   -0.282500    0.130200
O      3.545200    2.287500   -2.249500
H     -3.313000    2.831800   -1.929700
H     -5.572300    2.035100   -1.204300
H     -1.880500   -1.363700    0.730000
H     -3.652500   -2.701900    1.757800
H     -6.008100   -2.073300    1.546900
H     -6.667200   -0.057100    0.270400
H     -0.136200   -0.245700    0.260200
H      1.524300    2.591500   -2.363000
H      5.644100    1.040100   -1.275200
H      6.361600   -0.960500    0.517600
H      5.409300   -2.594200    2.098000
H      3.503000   -3.447700    3.031200
H      1.447900   -1.299200    1.197200
