24

C      4.083635   -0.383589   -0.086077
O      3.187948    0.699149   -0.289567
C      1.829015    0.453640   -0.249361
C      0.951370    1.664455   -0.476520
C     -0.524864    1.458231   -0.443992
N     -1.308191    2.547241   -0.648250
C     -2.638672    2.350339   -0.616893
C     -3.222916    1.116781   -0.391098
O      1.442399    2.771286   -0.679273
C      1.255920   -0.745781   -0.029838
C     -0.197345   -0.922140   -0.002764
C     -1.027634    0.184264   -0.210419
C     -2.417412    0.011827   -0.183813
N     -2.973488   -1.191918    0.036575
C     -2.153744   -2.249048    0.235078
C     -0.773196   -2.167641    0.225267
H      5.104065    0.005032   -0.154051
H      3.954284   -0.817092    0.910856
H      3.960975   -1.144963   -0.863129
H     -3.244871    3.236916   -0.783060
H     -4.302657    1.014211   -0.376227
H      1.849647   -1.637135    0.137189
H     -2.657979   -3.196418    0.408277
H     -0.176290   -3.057645    0.392038
