27
 xtb: 6.6.1 (8d0f1dd)
C      4.673600    0.589700   -0.230000
C      3.255500    0.148800   -0.225400
C      2.195300    0.996200   -0.186400
C      0.864400    0.491700   -0.184000
C      0.683100   -0.862400   -0.221300
C     -0.647900   -1.505300   -0.221700
O     -0.749300   -2.734800   -0.256000
C     -1.785300   -0.605200   -0.180100
C     -1.621500    0.799000   -0.141400
C     -0.286200    1.419000   -0.141000
O     -0.118600    2.627600   -0.107400
C     -2.727700    1.630900   -0.102400
C     -4.015400    1.096400   -0.101400
C     -4.197900   -0.263500   -0.138600
C     -3.095000   -1.138000   -0.178100
O     -3.350600   -2.436600   -0.210600
O      1.718000   -1.714400   -0.260700
C      3.017900   -1.289400   -0.266100
O      3.882600   -2.141600   -0.303200
H      5.193000    0.155800    0.622900
H      5.171000    0.209300   -1.120800
H      4.743700    1.671400   -0.197700
H      2.325000    2.068000   -0.155900
H     -2.566300    2.697300   -0.072700
H     -4.868000    1.755200   -0.070800
H     -5.180900   -0.705900   -0.138700
H     -2.512500   -2.958900   -0.236000
