37

O      2.976232   -0.394611   -2.709337
C      2.349384   -0.453634   -1.661786
C      0.943962   -0.750978   -1.623807
C      0.184531   -0.836603   -0.474845
C     -1.156793   -1.129372   -0.877897
C     -2.373601   -1.309084   -0.006900
C     -3.180421   -0.025239    0.280890
C     -2.357414    0.888429    1.189047
O     -2.534954    0.609846    2.497459
O     -1.590600    1.774677    0.839988
N     -3.595319    0.672459   -0.966080
C     -4.564139    1.730082   -0.708988
C     -1.133457   -1.230690   -2.260364
N      0.139909   -0.993268   -2.702081
C      0.778974   -0.633074    0.833243
C      2.264395   -0.310411    0.819054
C      2.958915   -0.232605   -0.332913
S      4.640465    0.128530   -0.277648
C      5.064572    0.337283    1.394945
C      4.120846    0.189368    2.325043
N      2.818210   -0.114371    2.074299
O      5.382021   -1.036146   -0.730572
O      4.863605    1.419084   -0.906537
O      0.170958   -0.712016    1.897650
H     -2.068840   -1.774610    0.938783
H     -3.038095   -2.035838   -0.494401
H     -4.088260   -0.314986    0.826137
H     -1.870665    1.169511    2.950497
H     -2.756134    1.082834   -1.385332
H     -4.156740    2.519965   -0.070787
H     -4.855969    2.189368   -1.658647
H     -5.472379    1.329689   -0.247292
H     -1.928977   -1.440313   -2.965411
H      0.449045   -0.991479   -3.668357
H      6.091815    0.579564    1.621712
H      4.355823    0.310461    3.380021
H      2.169093   -0.211823    2.861211
