36
 xtb: 6.6.1 (8d0f1dd)
C     -5.222900   -0.049100    0.813300
C     -3.843100    0.330300    0.405500
C     -2.720900   -0.355200    0.675600
C     -1.446100    0.128400    0.227600
C     -1.423400    1.355100   -0.498000
C     -0.211900    1.890500   -0.957500
C      1.005800    1.227400   -0.676200
C      2.281500    1.726600   -1.088500
C      3.426900    1.041100   -0.762000
C      3.387600   -0.149100   -0.016100
C      2.173300   -0.660300    0.384400
C      0.980100    0.005100    0.060200
C     -0.261900   -0.535900    0.478000
O     -0.282200   -1.736900    1.169400
C     -0.378800   -2.880500    0.326200
O      4.592500   -0.702700    0.247800
C      4.642100   -1.897800    1.009100
O      2.434200    2.861500   -1.792900
O     -0.187400    3.034300   -1.661600
C     -2.666000    2.032300   -0.760800
O     -2.762700    3.093400   -1.388100
O     -3.813300    1.499700   -0.309000
H     -5.206500   -0.973100    1.379200
H     -5.847700   -0.167900   -0.069700
H     -5.657400    0.744900    1.417300
H     -2.755200   -1.263400    1.251100
H      4.380300    1.431800   -1.076400
H      2.100900   -1.558500    0.973800
H     -1.313600   -2.869100   -0.241200
H     -0.358000   -3.739600    0.992000
H      0.461700   -2.925400   -0.371800
H      4.209900   -1.749200    2.001200
H      4.123500   -2.711000    0.496300
H      5.699400   -2.134600    1.099300
H      1.570000    3.277400   -1.974200
H     -1.111000    3.379500   -1.763500
