36

C     -5.243905   -0.079996    0.882166
C     -3.882454    0.333161    0.422691
C     -2.764313   -0.344273    0.703059
C     -1.480717    0.149017    0.210392
C     -1.443687    1.340729   -0.510671
C     -0.211976    1.854942   -0.957451
C      1.019487    1.202769   -0.674695
C      2.290712    1.686872   -1.075840
C      3.474194    1.025659   -0.758670
C      3.439133   -0.146919   -0.017301
C      2.203223   -0.653010    0.385762
C      0.983315   -0.006850    0.059500
C     -0.274347   -0.533164    0.452099
O     -0.313819   -1.726570    1.147377
C     -0.430437   -2.824919    0.235881
O      4.661451   -0.700055    0.244125
C      4.685490   -1.868646    1.053468
O      2.437921    2.843218   -1.800732
O     -0.145511    3.030844   -1.684024
C     -2.707685    2.056316   -0.804949
O     -2.682779    3.097297   -1.457224
O     -3.870012    1.520185   -0.337248
H     -5.215914   -1.001873    1.472113
H     -5.897392   -0.250290    0.020698
H     -5.687264    0.704888    1.503106
H     -2.787372   -1.247686    1.303818
H      4.425347    1.436806   -1.086090
H      2.159750   -1.565186    0.973853
H     -1.360124   -2.768628   -0.340200
H     -0.453491   -3.745457    0.826597
H      0.428894   -2.878142   -0.440853
H      4.266565   -1.671346    2.045799
H      4.166720   -2.698451    0.562275
H      5.731286   -2.162125    1.186094
H      1.538078    3.204883   -1.940997
H     -1.058368    3.386002   -1.803930
