43
 xtb: 6.6.1 (8d0f1dd)
C     -6.255900    1.498000    0.415600
O     -5.373500    0.535800   -0.123900
C     -4.024100    0.683700    0.096000
C     -3.473800    1.682700    0.897200
C     -2.092100    1.765200    1.065200
C     -1.243500    0.867600    0.449100
C      0.180600    0.906000    0.584700
C      0.991600    0.004500   -0.039700
C      2.451900    0.049200    0.074400
C      3.064300    0.646500    1.187500
C      4.432700    0.698000    1.204500
O      5.262800    1.221300    2.168700
C      6.582100    1.021700    1.697000
O      6.534700    0.362100    0.445200
C      5.204200    0.177100    0.165100
C      4.623000   -0.430700   -0.920400
C      3.231600   -0.492400   -0.954200
C      2.515400   -1.162400   -2.088800
C      1.311000   -1.903600   -1.515500
N      0.446000   -0.963800   -0.841700
C     -0.918800   -1.050900   -0.997100
C     -1.783700   -0.169400   -0.376300
C     -3.194500   -0.243700   -0.535800
O     -3.702400   -1.237100   -1.373000
C     -4.474500   -2.236100   -0.724700
H     -6.019800    2.500500    0.049300
H     -7.244000    1.204600    0.067200
H     -6.233700    1.487800    1.509000
H     -4.106200    2.401500    1.389700
H     -1.684300    2.547200    1.688100
H      0.608100    1.694700    1.180200
H      2.492000    1.033900    2.011500
H      7.138100    0.402500    2.415500
H      7.080000    1.995100    1.578700
H      5.222600   -0.843800   -1.713400
H      3.175900   -1.856300   -2.605200
H      2.173100   -0.412700   -2.806800
H      0.742800   -2.396300   -2.304500
H      1.657900   -2.662400   -0.802900
H     -1.287500   -1.831200   -1.638800
H     -4.754800   -2.941800   -1.503500
H     -5.372100   -1.809500   -0.271600
H     -3.883000   -2.742800    0.044700
