38
 xtb: 6.6.1 (8d0f1dd)
C     -1.490800    0.236100    0.738400
C     -2.999800    0.190600    0.470600
N     -3.596400   -0.911700    1.178400
C     -2.971600   -2.116000    1.099700
C     -1.664000   -2.237500    0.721800
C     -0.858300   -1.094000    0.461900
C      0.423600   -1.227800    0.014900
C      1.323200   -0.176500   -0.321200
N      1.122100    1.052300   -0.020100
C      2.034600    2.061000   -0.491300
C      3.477700    1.799300   -0.187300
C      4.101800    0.988600    0.710000
C      5.484100    1.247600    0.481300
O      6.486800    0.680700    1.131700
N      5.645400    2.136600   -0.469500
O      4.393200    2.487800   -0.895900
C      1.886000    2.193300   -2.012300
O      2.149700    1.302600   -2.787100
O      1.406500    3.361600   -2.361800
C     -3.747300   -3.322500    1.456400
O     -3.291700   -4.450000    1.467100
O     -5.010900   -3.057300    1.760600
C     -3.227000    0.099800   -1.042900
O     -2.704300    0.844400   -1.840600
O     -4.060300   -0.864300   -1.381500
H     -1.021600    1.003900    0.123100
H     -1.309900    0.493600    1.782600
H     -3.454400    1.128100    0.805000
H     -4.601900   -0.928900    1.270700
H     -1.237900   -3.225500    0.657200
H      0.795000   -2.227500   -0.162400
H      2.216600   -0.488600   -0.874900
H      1.731900    3.013900   -0.039200
H      3.677300    0.317300    1.423100
H      7.342000    1.013300    0.808700
H      1.270400    3.459200   -3.326900
H     -5.513100   -3.860300    1.997200
H     -4.206900   -0.923400   -2.345600
