59

C      9.174968   -0.904201   -0.964625
C      7.677286   -0.884733   -0.691335
C      7.099783    0.517256   -0.849178
C      5.639869    0.441736   -0.499962
C      4.708853    1.270808   -1.138965
C      3.349508    1.194317   -0.807541
C      2.914803    0.278325    0.143804
C      1.479652    0.198765    0.463238
C      0.532572    1.147556   -0.186231
C     -0.859923    1.022856    0.234026
C     -1.679683   -0.029231   -0.424744
C     -3.045509   -0.294935    0.075020
C     -3.552565    0.468229    1.126157
C     -4.838579    0.226672    1.622723
C     -5.627304   -0.787286    1.060906
C     -7.007700   -1.067314    1.580938
C     -7.903671   -1.479928    0.418140
C     -8.236829   -0.346810   -0.548721
O     -7.318567   -2.583763   -0.302755
C     -5.978449   -2.683733   -0.527628
C     -5.128554   -1.569431    0.004250
C     -3.841173   -1.306984   -0.498319
O     -3.397839   -2.020309   -1.578828
O     -5.514433   -3.662720   -1.095423
O     -1.246838   -0.675547   -1.375593
C     -1.373355    1.765310    1.225145
O     -0.632650    2.748810    1.865828
C     -2.756276    1.555649    1.714703
O     -3.191513    2.284459    2.601722
C      0.945348    2.052453   -1.092948
N      0.156272    2.973198   -1.747516
C      2.398470    2.094078   -1.482134
O      2.786637    2.873523   -2.348151
O      1.085339   -0.635574    1.276518
C      3.849475   -0.552441    0.798249
O      3.441985   -1.484003    1.716456
C      5.219681   -0.454147    0.499527
C      6.257760   -1.225884    1.256270
O      7.478213   -1.336245    0.660385
O      6.069357   -1.687468    2.372364
H      9.708618   -0.222819   -0.291598
H      9.582525   -1.905664   -0.784865
H      9.393475   -0.617463   -1.995895
H      7.185087   -1.601951   -1.362113
H      7.581570    1.227302   -0.164611
H      7.238421    0.868010   -1.879424
H      5.042849    1.981040   -1.896930
H     -5.226533    0.831990    2.442807
H     -7.425205   -0.195333    2.099141
H     -6.930924   -1.890073    2.303547
H     -8.847264   -1.854462    0.833132
H     -8.910929   -0.709769   -1.332664
H     -7.349741    0.038737   -1.060170
H     -8.726146    0.482730   -0.028962
H     -2.468178   -1.789806   -1.791439
H     -1.233378    3.133944    2.541786
H      0.620970    3.569410   -2.433042
H     -0.838997    3.053679   -1.597518
H      2.469358   -1.438050    1.843047
