47
 xtb: 6.6.1 (8d0f1dd)
C     -4.537600    0.780000   -1.473100
C     -3.473300    0.708300   -0.396100
C     -2.942200   -0.693100   -0.010100
C     -1.547100   -0.273600    0.530600
C     -1.208900    0.861400   -0.399400
C      0.079700    1.218300   -0.691400
C      0.403100    2.419300   -1.429800
C      1.695200    2.784500   -1.606300
C      2.809600    2.022000   -1.118000
C      2.468100    0.754600   -0.468700
C      1.148700    0.349200   -0.243100
C      0.876400   -0.928100    0.345900
C     -0.473200   -1.341400    0.631100
O     -0.778200   -2.450600    1.082400
C      1.916400   -1.827000    0.699400
O      1.712100   -3.023300    1.214500
C      3.230900   -1.384600    0.494300
C      3.480000   -0.127700   -0.067900
O      4.812300    0.018900   -0.151700
C      5.330700   -1.137600    0.358800
N      4.442600   -1.988200    0.748000
C      6.795700   -1.293100    0.413500
O      3.986100    2.392300   -1.251500
C     -0.691200    3.277800   -1.967300
O     -2.305600    1.431600   -0.846900
O     -1.622300    0.307500    1.829800
C     -2.756400   -1.593200   -1.231800
C     -3.821400   -1.378300    1.028300
H     -4.160200    0.395100   -2.414700
H     -4.835000    1.814300   -1.616000
H     -5.403900    0.203700   -1.165300
H     -3.825500    1.213800    0.512300
H      1.944000    3.695800   -2.130000
H      0.734500   -3.190100    1.308000
H      7.205900   -1.245500   -0.593200
H      7.035900   -2.245900    0.871000
H      7.227400   -0.476900    0.988700
H     -1.340500    3.613100   -1.161900
H     -1.304400    2.714400   -2.666500
H     -0.273300    4.142600   -2.473300
H     -1.782400   -0.392600    2.481400
H     -2.124500   -1.116100   -1.979300
H     -3.719000   -1.829200   -1.674500
H     -2.285100   -2.525900   -0.931600
H     -3.340800   -2.291200    1.371600
H     -4.776100   -1.639400    0.581100
H     -4.007200   -0.726100    1.877700
