20

C      3.252437    0.398422    0.043204
C      1.820170   -0.027001   -0.006859
C      1.427097   -1.280676   -0.248263
C      0.006141   -1.674813   -0.292339
C     -1.041618   -0.627517   -0.056928
O     -2.336127   -1.106131   -0.121024
C     -3.429984   -0.225311    0.082157
C     -0.642537    0.637652    0.186628
O     -1.521144    1.688080    0.418517
C      0.799718    1.013636    0.226552
O      1.094724    2.185073    0.453897
O     -0.272283   -2.848162   -0.520470
H      3.932635   -0.439939   -0.141344
H      3.453089    1.161632   -0.715858
H      3.495830    0.812621    1.027138
H      2.134388   -2.083803   -0.426432
H     -4.349791   -0.810834   -0.012538
H     -3.414189    0.197830    1.091207
H     -3.457745    0.553663   -0.685897
H     -0.950810    2.475579    0.562227
