54
 xtb: 6.6.1 (8d0f1dd)
C     -3.801800   -1.538800   -1.406600
C     -4.815200   -0.728000   -0.592100
C     -4.736100    0.794500   -0.845800
C     -3.759900    1.529300    0.127700
C     -4.092300    1.119100    1.561000
C     -3.903500   -0.394500    1.641500
O     -4.823800   -1.066600    0.791100
C     -2.459200   -0.716000    1.339900
C     -1.836500   -1.795400    1.905100
C     -0.507900   -2.097400    1.593400
C      0.230000   -1.281700    0.747900
C     -0.382500   -0.140300    0.182300
C     -1.754700    0.129000    0.438100
N     -2.392900    1.144300   -0.150300
C      0.403100    0.757800   -0.644400
O     -0.099800    1.663900   -1.325000
C      1.867300    0.614800   -0.581600
C      2.478100   -0.504200   -0.028900
C      1.622900   -1.626600    0.380000
O      2.008000   -2.791300    0.379800
C      3.898100   -0.565200    0.056100
C      4.664900    0.516400   -0.465400
C      4.006400    1.613100   -1.059400
C      2.644400    1.663500   -1.109200
C      6.070800    0.475300   -0.387200
C      6.728200   -0.578500    0.192100
C      5.961500   -1.633100    0.729100
C      4.597200   -1.628900    0.667400
C      8.219200   -0.634600    0.276400
Cl     0.181200   -3.495300    2.350900
C     -3.869600    3.038100   -0.076100
O     -6.020700    1.370100   -0.797300
H     -4.060500   -1.475000   -2.459600
H     -3.854500   -2.579100   -1.095000
H     -2.782500   -1.191900   -1.278400
H     -5.813400   -1.049000   -0.920400
H     -4.388900    0.960800   -1.870700
H     -3.417300    1.612000    2.260200
H     -5.116900    1.389600    1.809600
H     -4.160700   -0.776300    2.634200
H     -2.372600   -2.437800    2.584600
H     -1.849900    1.705200   -0.803000
H      4.600000    2.415100   -1.470800
H      2.123000    2.498200   -1.552600
H      6.627700    1.306600   -0.794100
H      6.471600   -2.459000    1.202300
H      4.040800   -2.451800    1.086700
H      8.532600   -0.738300    1.313500
H      8.667600    0.262000   -0.141000
H      8.589900   -1.500900   -0.269100
H     -3.242300    3.556300    0.643500
H     -4.899200    3.358600    0.047400
H     -3.549700    3.300600   -1.081100
H     -6.469500    1.081500    0.010200
