43

O     -0.065030    1.797057    2.208440
C     -1.119569    1.331717    2.603370
O     -1.542074    1.570814    3.859807
C     -2.055463    0.479246    1.824031
C     -1.714606    0.062428    0.518658
C     -2.627610   -0.724143   -0.242757
N     -2.268668   -1.090014   -1.569196
C     -3.273622   -1.703351   -2.433568
C     -0.962112   -0.867360   -2.089268
C     -0.047966   -0.081414   -1.325888
C      1.245787    0.200895   -1.818410
C      2.250118    1.035967   -1.048509
C      2.977361    0.237469    0.001509
C      3.392154    0.656419    1.213670
C      3.235470    2.052917    1.748398
C      4.085668   -0.291953    2.156291
C      1.636800   -0.339213   -3.054298
C      0.765738   -1.135633   -3.789700
C     -0.518293   -1.398023   -3.310852
N     -0.472022    0.391490   -0.068584
C     -3.833776   -1.113041    0.364141
C     -4.158977   -0.709452    1.660579
C     -3.280378    0.090344    2.384090
H     -0.833162    2.129582    4.241477
H     -3.138208   -1.436707   -3.487542
H     -3.246822   -2.793982   -2.338053
H     -4.287812   -1.354303   -2.210831
H      1.738753    1.911549   -0.637124
H      2.995446    1.434189   -1.749213
H      3.170635   -0.799530   -0.274619
H      2.643342    2.040815    2.668952
H      4.218725    2.475919    1.980838
H      2.749057    2.735502    1.048425
H      3.521182   -0.376711    3.090713
H      4.185181   -1.298456    1.736445
H      5.091812    0.072113    2.388627
H      2.634364   -0.148996   -3.444836
H      1.087124   -1.558631   -4.737944
H     -1.150017   -2.043205   -3.911316
H      0.173140    0.934527    0.498544
H     -4.543465   -1.753700   -0.149063
H     -5.100681   -1.022120    2.105365
H     -3.557525    0.398983    3.389201
