51

C      6.214073    0.280796    1.888423
C      5.008156   -0.313203    1.184337
C      4.272086    0.705108    0.336478
O      4.611233    1.877783    0.223282
N      3.175020    0.173414   -0.302890
C      2.318604    0.988761   -1.137561
C      1.246914    0.181725   -1.876453
C      0.179321   -0.386410   -0.950736
C     -0.908035    0.421199   -0.540693
C     -1.917556   -0.081977    0.329462
C     -3.010366    0.740160    0.736778
C     -3.952498    0.200043    1.616661
C     -3.790175   -1.095402    2.050461
N     -2.773179   -1.885491    1.668284
C     -1.840549   -1.405316    0.815331
C     -0.759665   -2.203457    0.400982
C      0.252884   -1.706555   -0.456540
S      1.658364   -2.773784   -0.876778
C      0.849529   -3.822698   -2.113163
O     -0.570224   -3.495452    0.866102
C     -1.727190   -4.327574    0.836473
C     -3.109019    2.137134    0.225889
C     -4.156377    3.021844    0.543564
C     -4.190602    4.324145    0.033168
C     -3.179348    4.771835   -0.808198
C     -2.132151    3.917464   -1.141131
C     -2.090471    2.612515   -0.629908
N     -1.033749    1.756145   -0.987269
H      5.917740    1.099647    2.552328
H      6.934360    0.678988    1.166119
H      6.718531   -0.481721    2.489739
H      4.309719   -0.716662    1.926204
H      5.327858   -1.137452    0.536794
H      2.933921   -0.801863   -0.149395
H      1.874208    1.763007   -0.501982
H      2.958598    1.496051   -1.868996
H      0.768232    0.817042   -2.631617
H      1.716541   -0.605693   -2.475401
H     -4.804212    0.759680    1.980726
H     -4.496229   -1.548954    2.740185
H      1.586788   -4.511929   -2.533429
H      0.044430   -4.410383   -1.665972
H      0.443810   -3.212084   -2.924550
H     -2.226430   -4.320056    1.809460
H     -1.388983   -5.352463    0.653341
H     -2.420428   -4.063178    0.030015
H     -4.972470    2.724047    1.193906
H     -5.011238    4.987319    0.296094
H     -3.205884    5.783286   -1.204738
H     -1.347751    4.276209   -1.801560
H     -0.306144    2.164407   -1.551626
