51
 xtb: 6.6.1 (8d0f1dd)
C      4.807000   -0.525300    1.808200
C      3.356300   -0.908900    1.517500
C      2.641400    0.187400    0.753000
O      1.784800    0.903200    1.268900
N      3.065400    0.350700   -0.510800
C      2.401200    1.227700   -1.447000
C      1.345100    0.460400   -2.266900
C      0.332300   -0.148400   -1.339400
C     -0.715900    0.600700   -0.816200
C     -1.608200    0.036400    0.124100
C     -2.695600    0.787400    0.642000
C     -3.535800    0.159300    1.549400
C     -3.274100   -1.158900    1.913200
N     -2.270400   -1.870000    1.467600
C     -1.420600   -1.298700    0.582600
C     -0.318600   -2.032100    0.088100
C      0.501600   -1.456900   -0.870400
S      1.844600   -2.462200   -1.478600
C      0.941400   -3.780000   -2.344500
O      0.011200   -3.313500    0.455700
C     -0.310000   -3.780800    1.752500
C     -2.864000    2.159800    0.200100
C     -3.889800    2.994400    0.651800
C     -3.997000    4.296100    0.213000
C     -3.072600    4.803900   -0.694300
C     -2.052200    4.006300   -1.158600
C     -1.936500    2.682800   -0.721500
N     -0.927400    1.901200   -1.201000
H      4.841900    0.400700    2.377400
H      5.363600   -0.387100    0.886100
H      5.285500   -1.308000    2.390200
H      2.818000   -1.064500    2.453800
H      3.318500   -1.829800    0.932900
H      3.658800   -0.363300   -0.907000
H      1.930000    2.014600   -0.853300
H      3.148900    1.662300   -2.111800
H      0.878100    1.131400   -2.987000
H      1.846700   -0.336200   -2.817000
H     -4.383600    0.662700    1.981400
H     -3.921400   -1.671300    2.614300
H      1.698200   -4.423000   -2.779800
H      0.336300   -4.327300   -1.629900
H      0.326400   -3.334000   -3.119500
H     -0.043700   -3.040600    2.509600
H      0.291000   -4.679700    1.883000
H     -1.371400   -4.013000    1.837100
H     -4.612300    2.617100    1.357300
H     -4.797400    4.921600    0.575600
H     -3.156000    5.824400   -1.034100
H     -1.331000    4.393200   -1.862100
H     -0.268400    2.327600   -1.835600
