69

C      7.467470    1.559139   -2.603606
C      6.238698    2.004418   -1.826002
C      5.147805    0.933766   -1.734309
C      5.563593   -0.284931   -0.907137
C      4.485812   -1.372405   -0.836580
C      3.136247   -0.949129   -0.245350
C      3.241112   -0.422971    1.190951
C      1.896408   -0.060444    1.856174
C      0.943824   -1.210214    2.020459
C      1.096186   -2.113136    3.008076
C      0.200148   -3.301717    3.094353
C     -0.806497   -3.498647    2.019491
C     -0.940483   -2.578412    1.057430
C     -0.143185   -1.345636    1.049962
C     -0.379780   -0.347161    0.166874
C     -1.416923   -0.453331   -0.898057
C     -2.735234    0.066479   -0.724266
C     -3.674172   -0.050425   -1.781506
C     -3.248465   -0.692135   -2.974601
C     -1.961841   -1.191707   -3.143568
C     -1.051428   -1.065529   -2.108850
O      0.221139   -1.548933   -2.261305
O     -4.080429   -0.861092   -4.053622
C     -4.982113    0.478399   -1.588027
C     -5.354787    1.133900   -0.399569
C     -4.431661    1.257415    0.635629
C     -3.150688    0.702796    0.470544
C     -4.836538    1.911198    1.930664
C     -5.960207    2.894099    1.724388
C     -6.088949    4.073772    2.348254
O     -6.963400    2.531161    0.789222
C     -6.726606    1.677348   -0.244966
O     -7.595549    1.377819   -1.059243
O     -3.715247    2.562745    2.522487
O     -5.880217    0.322438   -2.630004
C      0.353794    0.944263    0.246309
O      0.049409    1.900230   -0.460511
O      1.317514    1.066268    1.179664
O     -1.581492   -4.641667    2.044742
O      0.319566   -4.114559    4.009340
O      2.103766   -2.013026    3.951374
H      8.006811    0.764470   -2.080314
H      8.158198    2.399111   -2.727313
H      7.193679    1.197151   -3.599218
H      5.815341    2.886420   -2.322097
H      6.538032    2.319912   -0.819493
H      4.857594    0.616486   -2.742517
H      4.266441    1.400063   -1.281151
H      6.457505   -0.740030   -1.347116
H      5.845359    0.030431    0.103608
H      4.310780   -1.761663   -1.847670
H      4.880363   -2.211412   -0.249590
H      2.672820   -0.197677   -0.892780
H      2.482415   -1.828151   -0.267668
H      3.765512   -1.164243    1.806920
H      3.859429    0.482869    1.183739
H      2.132830    0.326456    2.856033
H     -1.679019   -2.756894    0.281498
H     -1.699176   -1.667451   -4.082888
H      0.331905   -1.852694   -3.178839
H     -4.940810   -0.455586   -3.813760
H     -2.455130    0.784453    1.306732
H     -5.171395    1.129338    2.622346
H     -5.368513    4.411375    3.086975
H     -6.934495    4.723521    2.142955
H     -3.359358    3.177986    1.856102
H     -6.765433    0.650954   -2.344031
H     -1.278491   -5.145518    2.828888
H      2.000207   -2.800119    4.530260
