69
 xtb: 6.6.1 (8d0f1dd)
C      6.697100    2.132600   -2.726100
C      5.534000    2.415900   -1.781600
C      4.560800    1.242800   -1.647100
C      5.160200    0.054400   -0.897600
C      4.222800   -1.152500   -0.823600
C      2.894900   -0.909300   -0.102600
C      3.089000   -0.491600    1.352300
C      1.756600   -0.338400    2.115400
C      0.985100   -1.619000    2.135400
C      1.374200   -2.636100    2.953600
C      0.680400   -3.911300    2.941400
C     -0.437200   -4.059900    2.011800
C     -0.805900   -3.038600    1.200300
C     -0.116100   -1.788300    1.232700
C     -0.519000   -0.720800    0.459300
C     -1.486900   -0.843500   -0.626200
C     -2.665300   -0.068100   -0.664600
C     -3.518100   -0.099700   -1.803200
C     -3.165900   -0.953800   -2.891200
C     -2.027900   -1.734000   -2.805900
C     -1.186200   -1.695200   -1.696800
O     -0.057500   -2.421000   -1.652900
O     -3.879200   -1.062900   -4.013200
C     -4.690700    0.704500   -1.809100
C     -4.996300    1.506500   -0.703600
C     -4.175500    1.456900    0.449000
C     -3.058200    0.682100    0.468000
C     -4.623100    2.233600    1.667500
C     -5.358800    3.482900    1.234000
C     -5.231500    4.671900    1.800400
O     -6.270700    3.336800    0.199400
C     -6.140100    2.396100   -0.743000
O     -6.995400    2.373800   -1.628200
O     -3.591000    2.503500    2.573900
O     -5.481000    0.680200   -2.887800
C      0.062600    0.618400    0.675400
O     -0.327800    1.614800    0.089800
O      1.037100    0.766400    1.568900
O     -1.076300   -5.239900    2.023800
O      1.016000   -4.839600    3.699500
O      2.413900   -2.509900    3.802500
H      7.329400    1.336500   -2.342600
H      7.310000    3.023000   -2.844500
H      6.326800    1.838400   -3.705700
H      4.982500    3.282000   -2.155400
H      5.922900    2.675300   -0.794300
H      4.246500    0.921800   -2.643100
H      3.672700    1.595600   -1.118100
H      6.069300   -0.267100   -1.408400
H      5.445500    0.368300    0.107600
H      4.001600   -1.483100   -1.840300
H      4.746900   -1.965700   -0.316900
H      2.322300   -0.143800   -0.632000
H      2.312900   -1.833200   -0.141100
H      3.685800   -1.233900    1.881700
H      3.599600    0.469800    1.399200
H      1.989400   -0.037000    3.144300
H     -1.651500   -3.157400    0.543700
H     -1.796700   -2.366800   -3.648600
H      0.040000   -2.953200   -2.460000
H     -4.669200   -0.488100   -3.993900
H     -2.468100    0.630900    1.368800
H     -5.331300    1.602700    2.229200
H     -4.575000    4.804100    2.638600
H     -5.798600    5.513100    1.449100
H     -2.902500    3.021700    2.132700
H     -6.266200    1.266800   -2.747300
H     -0.646500   -5.818200    2.685500
H      2.498200   -3.343300    4.306700
