37

O     -3.324653   -1.744409   -2.137880
C     -2.033788   -1.418943   -1.961062
C     -1.808778   -0.532214   -0.793715
C     -2.983523    0.054683   -0.105578
C     -3.575075    1.226414   -0.598886
C     -4.675517    1.784652    0.053633
C     -5.181257    1.176429    1.196615
O     -6.255829    1.758199    1.800951
C     -4.606146    0.014869    1.702335
C     -3.505408   -0.546540    1.050128
C     -0.580648   -0.217453   -0.322786
O     -0.470795    0.639239    0.786126
C      0.862106    0.771919    1.058017
C      1.664375   -0.009636    0.100051
C      3.128779   -0.121078    0.085040
C      3.864849   -0.090491    1.281068
C      5.261468   -0.179919    1.274771
C      5.933590   -0.299120    0.065349
O      7.292312   -0.387828    0.011437
C      5.232964   -0.328833   -1.131644
C      3.837905   -0.237351   -1.121449
C      0.759077   -0.580541   -0.698947
O      1.075811   -1.430563   -1.723342
O      1.302842    1.448926    1.973438
O     -1.178037   -1.846898   -2.716899
H     -3.343509   -2.318753   -2.930754
H     -3.185944    1.713617   -1.489589
H     -5.135281    2.692618   -0.326530
H     -6.482343    1.245485    2.594056
H     -4.995812   -0.463950    2.595015
H     -3.058233   -1.453878    1.449631
H      3.361451    0.002759    2.241881
H      5.797073   -0.152130    2.218366
H      7.641135   -0.339345    0.916499
H      5.766884   -0.420526   -2.073143
H      3.314282   -0.254928   -2.074889
H      0.283674   -1.668038   -2.247313
