37
 xtb: 6.6.1 (8d0f1dd)
O     -3.357100   -1.167700   -2.465000
C     -2.078900   -0.962500   -2.244500
C     -1.800600   -0.341500   -0.940300
C     -2.965700    0.111900   -0.162200
C     -3.916700    0.956800   -0.737200
C     -5.002900    1.391500   -0.011800
C     -5.177400    0.978700    1.309100
O     -6.265600    1.422500    1.975400
C     -4.235600    0.130900    1.886800
C     -3.140200   -0.288500    1.160900
C     -0.544500   -0.186400   -0.420400
O     -0.443700    0.427500    0.804400
C      0.875900    0.499900    1.167600
C      1.682100   -0.105100    0.119800
C      3.127400   -0.213900    0.147600
C      3.866800    0.309900    1.213900
C      5.240900    0.208000    1.243700
C      5.923300   -0.423400    0.206100
O      7.269500   -0.551400    0.189900
C      5.196700   -0.948600   -0.862800
C      3.825100   -0.845600   -0.891100
C      0.799300   -0.521000   -0.859100
O      1.130600   -1.116500   -1.992400
O      1.173400    1.013200    2.224800
O     -1.229700   -1.291900   -3.065300
H     -3.524500   -1.592100   -3.331200
H     -3.788400    1.296800   -1.752500
H     -5.733100    2.055300   -0.445600
H     -6.285500    1.080400    2.882800
H     -4.358200   -0.201100    2.906900
H     -2.422300   -0.951400    1.617700
H      3.354000    0.801300    2.024500
H      5.787900    0.622200    2.077900
H      7.665900   -0.156300    0.982200
H      5.733500   -1.435300   -1.661300
H      3.282500   -1.258800   -1.723900
H      0.336000   -1.261200   -2.575400
