40
 xtb: 6.6.1 (8d0f1dd)
C     -4.970500    1.251200   -0.809500
C     -4.701600    0.237800   -1.954300
N     -3.359900   -0.253100   -2.180600
C     -2.547000   -0.309100   -1.179000
C     -1.245100   -0.899800   -1.207700
C     -0.502000   -1.052400   -0.068900
C     -0.939100   -0.562300    1.284000
C     -2.219500    0.066600    1.282300
C     -2.940200    0.200200    0.107000
C     -4.110200    0.914800    0.362800
C     -4.084000    1.201400    1.716000
N     -2.951400    0.686400    2.259900
O     -0.197100   -0.688000    2.267100
N      0.689300   -1.696700   -0.004700
C      1.523000   -2.014200   -1.131500
C      2.217700   -0.769500   -1.721700
C      3.111800   -0.132500   -0.698000
C      4.415200   -0.577100   -0.520200
C      5.229100   -0.032000    0.455200
C      4.744500    0.974800    1.281700
C      3.438600    1.425400    1.114700
C      2.637000    0.874000    0.135200
O      5.503300    1.548200    2.256800
H     -4.716900    2.260600   -1.149700
H     -6.032100    1.237700   -0.563200
H     -5.032900    0.668100   -2.903100
H     -5.310900   -0.660100   -1.782100
H     -0.887100   -1.272000   -2.152900
H     -4.795100    1.730600    2.318300
H     -2.683700    0.748700    3.229700
H      1.146800   -1.596600    0.894500
H      2.277600   -2.725800   -0.792800
H      0.911300   -2.490400   -1.900500
H      2.798000   -1.079400   -2.590500
H      1.453400   -0.060500   -2.042500
H      4.802900   -1.359200   -1.155900
H      6.241700   -0.389500    0.575500
H      3.072100    2.205700    1.763300
H      1.624800    1.234500    0.016900
H      6.388200    1.153400    2.272000
