29

C     -4.236426    1.303026    0.674212
O     -2.827385    1.224328    0.516827
C     -2.249228    0.015987    0.230446
C     -3.003115   -1.157799    0.085291
C     -2.384038   -2.366043   -0.205205
C     -1.004929   -2.411054   -0.353156
C     -0.211962   -1.250784   -0.214501
N      1.184036   -1.345124   -0.373456
C      1.999442   -0.210915   -0.241979
C      1.416280    1.034067    0.051806
C      2.262149    2.163100    0.179227
C      3.645329    2.063120    0.020516
C      4.217428    0.831492   -0.269631
C      3.402137   -0.287706   -0.398294
O      4.029765   -1.472848   -0.685294
N      0.013170    1.143900    0.214395
C     -0.824518   -0.005809    0.082258
O     -0.465146    2.302321    0.481239
O      1.730210   -2.485760   -0.643818
H     -4.490643    2.343915    0.896273
H     -4.752725    1.024892   -0.250278
H     -4.573922    0.691479    1.517249
H     -4.083702   -1.162097    0.193755
H     -2.975080   -3.272626   -0.316427
H     -0.532706   -3.367777   -0.581357
H      1.826321    3.137215    0.407024
H      4.271474    2.946490    0.123820
H      5.293300    0.738886   -0.395879
H      3.324487   -2.167878   -0.745061
