45

C     -4.619400   -1.941727    2.603074
C     -4.196565   -1.234012    1.354217
C     -4.661264   -0.040192    0.956497
C     -4.150587    0.607610   -0.218560
C     -3.239371   -0.021148   -0.968661
O     -2.774437   -1.310642   -0.630481
C     -3.195163   -1.935318    0.510843
O     -2.766280   -3.040798    0.828926
C     -2.660990    0.526454   -2.185285
C     -1.340649    0.724090   -2.379215
C     -0.275720    0.473625   -1.427488
C      1.017660    0.699058   -1.706040
C      2.078889    0.442407   -0.756446
C      3.371952    0.678201   -1.026357
C      4.433270    0.417409   -0.076167
C      5.722330    0.679379   -0.344553
C      6.775799    0.446420    0.578366
C      8.013981    1.038779    0.752090
C      8.673144    0.380163    1.816794
C      7.834030   -0.615962    2.261685
N      6.694136   -0.576275    1.499074
Cl     8.676098    2.338654   -0.122928
C     -3.650935    0.852970   -3.275437
O     -5.559832    0.696282    1.697216
C     -6.888294    0.552927    1.193221
H     -5.072560   -2.908307    2.359353
H     -5.354994   -1.371999    3.179515
H     -3.756831   -2.115507    3.255045
H     -4.499645    1.606523   -0.457403
H     -1.016893    1.125556   -3.339404
H     -0.552140    0.087203   -0.449664
H      1.307258    1.087369   -2.680236
H      1.787684    0.038773    0.211404
H      3.660587    1.083802   -1.994319
H      4.128736    0.014114    0.886168
H      5.995566    1.135138   -1.294819
H      9.655836    0.603700    2.210458
H      7.950995   -1.353412    3.044626
H      5.921626   -1.222602    1.586108
H     -3.155306    1.158085   -4.203568
H     -4.267527   -0.021854   -3.509804
H     -4.310318    1.673422   -2.972879
H     -7.558224    1.118849    1.846851
H     -6.973479    0.962307    0.181022
H     -7.202174   -0.496441    1.207160
