51

C     -8.143786    3.247618    5.850816
O     -8.717178    3.876363    4.712505
C     -8.410291    3.366184    3.478523
C     -9.051867    3.947855    2.373089
C     -8.797982    3.492869    1.076042
C     -7.896296    2.450181    0.868118
C     -7.244412    1.858412    1.956302
C     -7.504277    2.322133    3.257234
C     -6.279549    0.765610    1.738505
C     -5.054122    1.070343    1.272374
C     -3.974227    0.142679    0.996930
C     -2.779804    0.538652    0.529834
C     -1.700229   -0.384278    0.253453
C     -0.505261    0.010961   -0.211309
C      0.574208   -0.911928   -0.487652
C      1.770217   -0.516319   -0.949594
C      2.849659   -1.439212   -1.226285
C      4.047195   -1.043393   -1.683896
C      5.125467   -1.967217   -1.962454
C      6.324776   -1.571844   -2.415507
C      7.401156   -2.496672   -2.697263
C      8.603308   -2.101793   -3.143351
C      9.675967   -3.029861   -3.427158
C     10.879590   -2.638079   -3.868339
C     11.919772   -3.637822   -4.139611
O     11.838763   -4.844523   -4.020158
O     13.040661   -3.032275   -4.562679
Br    -6.887484   -0.955832    2.155017
Br   -10.293361    5.372800    2.579526
H     -8.534362    3.748869    6.741800
H     -8.433387    2.193310    5.909530
H     -7.054873    3.361306    5.855723
H     -9.299167    3.944328    0.223104
H     -7.709543    2.099789   -0.144996
H     -6.980121    1.849070    4.082640
H     -4.824393    2.118203    1.076545
H     -4.151942   -0.914470    1.180192
H     -2.587917    1.593346    0.341236
H     -1.890242   -1.440001    0.438655
H     -0.314272    1.066103   -0.396107
H      0.383370   -1.967766   -0.304328
H      1.961637    0.539299   -1.132170
H      2.657032   -2.495353   -1.047620
H      4.240193    0.012701   -1.861691
H      4.930110   -3.023819   -1.790202
H      6.520277   -0.515257   -2.586910
H      7.201496   -3.554172   -2.532921
H      8.802304   -1.044516   -3.306741
H      9.477025   -4.089495   -3.270321
H     11.133398   -1.599931   -4.041735
H     13.662764   -3.773158   -4.716807
