26
 xtb: 6.6.1 (8d0f1dd)
C     -1.822800   -2.561300   -0.988300
N     -0.740200   -1.714500   -0.563700
C      0.553300   -2.103500   -0.442100
C      1.326900   -1.029200   -0.035300
C      2.745100   -0.795600    0.366600
C      3.064800    0.718800    0.257400
N      2.057900    1.692500    0.621700
C      0.814700    1.369700    0.490800
C      0.443800    0.039700    0.089300
C     -0.838200   -0.388300   -0.229600
C     -1.947400    0.499900   -0.105100
O     -3.132200    0.233000   -0.350100
C     -1.571300    1.868900    0.390600
C     -0.291600    2.257700    0.670000
N     -2.642100    2.679200    0.550800
H     -1.696800   -2.842600   -2.035300
H     -2.756600   -2.013500   -0.876500
H     -1.854800   -3.465100   -0.379500
H      0.841400   -3.114300   -0.654900
H      2.872800   -1.122000    1.404200
H      3.449600   -1.354600   -0.249500
H      3.326800    0.950500   -0.784400
H      3.944600    0.948400    0.864500
H     -0.095500    3.264600    1.002800
H     -2.523400    3.652700    0.760400
H     -3.529000    2.328900    0.225100
