98

C     -2.346919    2.342831    0.560106
C     -2.677552    0.904705    0.232282
C     -4.095565    0.527318    0.257242
C     -5.135034    1.373488    0.357509
C     -6.516542    0.936352    0.344386
C     -7.601390    1.712479    0.139807
C     -7.556804    3.191364   -0.160597
C     -8.929609    1.091226    0.188470
C    -10.087831    1.660958   -0.191010
C    -11.400968    1.029529   -0.065551
C    -11.730771   -0.099061   -0.743603
C    -10.818292   -0.828829   -1.705629
C    -13.089407   -0.750692   -0.622041
C    -14.160325    0.100596    0.066916
O    -15.240307   -0.730648    0.498120
C    -13.575457    0.839985    1.265123
C    -12.392561    1.761220    0.870634
C    -12.947985    3.011944    0.157210
C    -11.725760    2.209770    2.191744
C     -1.762406   -0.039707   -0.085729
C     -0.332023    0.144478   -0.224136
C      0.508155   -0.837560   -0.594732
C      1.935070   -0.618325   -0.738844
C      2.888839   -1.522912   -1.053238
C      2.618579   -2.976507   -1.351658
C      4.283742   -1.068853   -1.087868
C      5.376982   -1.848348   -1.158231
C      6.722144   -1.300751   -1.103789
C      7.870114   -1.989076   -0.928053
C      7.962060   -3.489971   -0.813212
C      9.120543   -1.234200   -0.823239
C     10.216809   -1.646594   -0.168170
C     11.425026   -0.846093   -0.020179
C     12.375318   -0.821519   -0.986415
C     12.280451   -1.544369   -2.309149
C     13.688676   -0.087239   -0.811411
C     13.983622    0.334353    0.630490
O     15.039469    1.293155    0.640100
C     12.731546    0.924741    1.266290
C     11.559976   -0.088439    1.316821
C     10.285255    0.725914    1.651857
C     11.799272   -1.090688    2.471319
H     -2.745618    3.014042   -0.210688
H     -2.774285    2.622449    1.530469
H     -1.277074    2.543650    0.635842
H     -4.306193   -0.534490    0.143739
H     -4.955075    2.438089    0.449053
H     -6.659919   -0.134961    0.502680
H     -8.139380    3.751368    0.578316
H     -7.963451    3.388494   -1.158741
H     -6.552752    3.618587   -0.148915
H     -8.965800    0.070430    0.572257
H    -10.110776    2.686595   -0.559828
H    -10.477590   -1.772259   -1.261201
H    -11.347553   -1.057348   -2.636735
H     -9.934724   -0.253970   -1.994366
H    -13.464866   -1.018650   -1.618737
H    -12.969281   -1.700642   -0.081528
H    -14.581027    0.815695   -0.649103
H    -14.903935   -1.319550    1.194998
H    -13.249942    0.100690    2.013709
H    -14.371160    1.415255    1.757403
H    -13.719359    3.505867    0.759368
H    -12.163581    3.754990   -0.027323
H    -13.390675    2.767706   -0.816535
H    -10.952934    2.969463    2.028164
H    -12.468377    2.647480    2.872237
H    -11.259196    1.364485    2.712514
H     -2.107323   -1.051721   -0.296085
H      0.078916    1.129236   -0.035510
H      0.116232   -1.832581   -0.790664
H      2.252693    0.404896   -0.533890
H      3.053769   -3.254067   -2.317333
H      1.558056   -3.227886   -1.415558
H      3.051756   -3.613630   -0.573267
H      4.424258    0.009169   -1.002377
H      5.272126   -2.927598   -1.211544
H      6.768665   -0.211583   -1.158272
H      7.065132   -4.008001   -1.165195
H      8.124292   -3.781586    0.229875
H      8.793082   -3.874577   -1.416359
H      9.120527   -0.234167   -1.265809
H     10.241336   -2.612536    0.340945
H     11.285459   -1.942693   -2.528295
H     12.984802   -2.383666   -2.324734
H     12.545022   -0.861943   -3.129023
H     13.700088    0.788745   -1.477318
H     14.519123   -0.730095   -1.151173
H     14.331310   -0.531933    1.200945
H     15.122011    1.640233    1.544790
H     12.440192    1.822726    0.698764
H     12.966505    1.291466    2.274182
H     10.437132    1.336580    2.550104
H      9.422929    0.079948    1.851847
H     10.024000    1.405035    0.828247
H     12.706881   -1.686626    2.318524
H     10.961980   -1.791338    2.574300
H     11.895432   -0.568776    3.432892
