34
 xtb: 6.6.1 (8d0f1dd)
C     -2.744400   -0.533200    2.510300
N     -2.335100    0.481500    1.577000
C     -2.410500    1.811100    1.774200
N     -1.893600    2.501900    0.783700
C     -1.435800    1.584200   -0.090900
C     -1.699100    0.304600    0.372600
C     -1.455000   -0.946100   -0.291600
C     -0.391000   -1.278900   -1.085900
C     -0.695900   -2.583300   -1.733000
O     -0.021900   -3.229500   -2.506400
N     -1.932200   -2.963200   -1.263100
C     -2.470700   -2.012700   -0.416400
O     -3.586500   -2.080100    0.058500
C      0.856300   -0.623000   -1.323500
C      1.602500   -0.755100   -2.483200
N      2.721700   -0.005700   -2.410000
C      2.765800    0.621000   -1.196200
C      1.604900    0.257000   -0.468000
C      1.455900    0.710400    0.840400
C      2.416000    1.543900    1.373400
C      3.525700    1.913100    0.615500
C      3.737800    1.460000   -0.669300
Br     4.829800    3.079900    1.407900
H     -1.899900   -1.180700    2.750300
H     -3.100100   -0.050100    3.416800
H     -3.541700   -1.142600    2.084500
H     -2.847700    2.249000    2.648600
H     -0.971000    1.869600   -1.012300
H     -2.414800   -3.805300   -1.544000
H      1.365300   -1.337100   -3.351800
H      3.417300    0.075800   -3.135400
H      0.614200    0.411500    1.440600
H      2.316300    1.914000    2.381200
H      4.617300    1.738100   -1.226800
