34

C     -2.736005   -0.395761    2.399750
N     -2.383065    0.555756    1.372125
C     -2.549028    1.908110    1.520126
N     -2.082072    2.571974    0.490834
C     -1.603328    1.614530   -0.361160
C     -1.788028    0.339679    0.146831
C     -1.486683   -0.945301   -0.358280
C     -0.369722   -1.301782   -1.015400
C     -0.558705   -2.711084   -1.447404
O      0.230031   -3.398548   -2.070342
N     -1.775891   -3.106434   -1.023583
C     -2.401654   -2.109578   -0.370308
O     -3.512564   -2.165122    0.124219
C      0.810099   -0.563215   -1.307797
C      1.353638   -0.446633   -2.569448
N      2.477800    0.329065   -2.477037
C      2.683233    0.714764   -1.171983
C      1.651538    0.162270   -0.407777
C      1.651276    0.400415    0.984220
C      2.659946    1.186370    1.555386
C      3.665421    1.725310    0.759087
C      3.702901    1.501301   -0.619330
Br     5.017869    2.781843    1.558515
H     -2.056095   -1.249564    2.363272
H     -2.639512    0.085557    3.377358
H     -3.771541   -0.704834    2.242732
H     -3.006341    2.350495    2.396155
H     -1.154079    1.891395   -1.307122
H     -2.164614   -4.019919   -1.186163
H      1.045980   -0.852960   -3.524827
H      3.080623    0.575890   -3.250442
H      0.873625   -0.013636    1.618064
H      2.645180    1.371152    2.626412
H      4.489770    1.918495   -1.238890
