85

C     -5.373067   -2.408684   -3.629796
C     -4.848798   -1.599492   -2.448695
C     -3.413366   -1.154950   -2.487136
C     -2.539341   -1.107441   -3.510881
C     -1.254564   -0.650999   -2.948424
O     -0.218912   -0.485690   -3.566196
N     -1.443607   -0.452970   -1.610788
C     -2.795659   -0.684814   -1.183001
C     -3.472650    0.593187   -0.636218
C     -2.925741    1.033755    0.690405
C     -3.451223    1.044981    1.973402
C     -2.423403    1.563119    2.844594
C     -1.317011    1.841940    2.054057
N     -1.671501    1.575557    0.758767
C     -0.009551    2.345482    2.321066
C      1.025347    2.235550    1.467431
C      2.387162    2.722314    1.642172
C      3.115363    2.440434    0.549146
C      2.150047    1.694137   -0.267736
N      0.959197    1.597952    0.246082
C      2.517128    1.015548   -1.556474
C      3.043235   -0.385280   -1.249065
C      3.500253   -1.153566   -2.457806
C      2.850552   -2.323440   -2.602163
C      1.886301   -2.410024   -1.489945
O      1.130848   -3.337496   -1.260271
N      2.031578   -1.269321   -0.747647
C      2.960495   -3.389923   -3.632963
C      3.646391   -4.638969   -3.099676
C      4.592854   -0.618899   -3.321706
C      4.516409    2.718589    0.173325
C      2.874220    3.442312    2.869003
C      3.805207    2.619425    3.758957
C      3.281614    1.252230    4.081825
O      3.858413    0.207465    3.828247
O      2.108549    1.267048    4.734283
C     -2.524304    1.764829    4.332099
C     -1.704800    0.769305    5.143539
C     -2.221591   -0.636024    5.065053
O     -1.551167   -1.629355    4.832019
O     -3.524059   -0.749198    5.381288
C     -4.814917    0.607578    2.385352
C     -2.656773   -1.410062   -4.960562
H     -5.413069   -1.811976   -4.542271
H     -6.397367   -2.740586   -3.424330
H     -4.759643   -3.297675   -3.813505
H     -4.988186   -2.209415   -1.545796
H     -5.487423   -0.716176   -2.333388
H     -0.660609   -0.245731   -1.003818
H     -2.784797   -1.488276   -0.437687
H     -3.344706    1.415953   -1.350488
H     -4.549814    0.433146   -0.537545
H     -1.036424    1.688795   -0.025183
H      0.133472    2.821925    3.285040
H      3.268779    1.618031   -2.073995
H      1.628959    0.979151   -2.194703
H      3.842278   -0.352652   -0.500782
H      1.492397   -1.124918    0.095894
H      1.961261   -3.648046   -4.005453
H      3.517616   -3.021705   -4.499986
H      4.615942   -4.395961   -2.655118
H      3.817400   -5.356145   -3.914970
H      3.030158   -5.133370   -2.342744
H      5.393113   -0.190249   -2.706197
H      5.048463   -1.399462   -3.944009
H      4.202309    0.163234   -3.978733
H      5.070149    3.204957    0.980283
H      4.549503    3.377873   -0.699248
H      5.044417    1.793152   -0.072793
H      3.410967    4.345562    2.556595
H      2.041058    3.809885    3.471940
H      4.004061    3.149552    4.698218
H      4.776770    2.495938    3.267297
H      1.881048    0.318133    4.866076
H     -2.169070    2.777636    4.560746
H     -3.570692    1.739424    4.645490
H     -1.697020    1.057507    6.199240
H     -0.664334    0.756816    4.804380
H     -3.715986   -1.705063    5.265196
H     -5.443273    0.368309    1.522931
H     -5.321180    1.396193    2.949237
H     -4.749333   -0.288728    3.005939
H     -1.786151   -1.050412   -5.516009
H     -2.748882   -2.488235   -5.128565
H     -3.527317   -0.902534   -5.392147
