85
 xtb: 6.6.1 (8d0f1dd)
C     -3.207000   -3.511800   -2.346700
C     -3.729200   -2.094700   -2.609600
C     -2.591400   -1.133600   -2.641600
C     -1.827500   -0.811100   -3.696800
C     -0.731200    0.059700   -3.234600
O      0.197700    0.525200   -3.892700
N     -0.931700    0.269500   -1.916800
C     -2.078700   -0.442900   -1.404200
C     -3.131200    0.512100   -0.791700
C     -2.705500    1.057700    0.525500
C     -3.344500    1.074500    1.770700
C     -2.466100    1.676900    2.682800
C     -1.293600    2.003800    1.970700
N     -1.506900    1.636300    0.671800
C     -0.029000    2.486000    2.350200
C      1.067600    2.468600    1.520000
C      2.446400    2.742500    1.863600
C      3.193800    2.399500    0.767300
C      2.257800    1.935700   -0.219300
N      1.020000    2.000000    0.212800
C      2.583100    1.276600   -1.512500
C      2.862900   -0.231100   -1.258600
C      2.645500   -1.046200   -2.504300
C      1.654700   -1.927600   -2.301400
C      1.171500   -1.788400   -0.914800
O      0.256300   -2.402200   -0.366000
N      1.918900   -0.822400   -0.343300
C      1.072000   -2.933100   -3.238100
C      1.840000   -4.255000   -3.180700
C      3.395500   -0.767800   -3.754600
C      4.672300    2.439600    0.599400
C      2.951900    3.092100    3.220700
C      3.512800    1.820800    3.900900
C      2.496300    0.712200    3.778500
O      2.429300   -0.048000    2.831800
O      1.658400    0.678800    4.792500
C     -2.721700    1.877100    4.141200
C     -1.747900    1.074500    5.022900
C     -1.585900   -0.345600    4.559700
O     -0.501400   -0.900800    4.459800
O     -2.710400   -0.965700    4.296500
C     -4.715400    0.567500    2.070200
C     -1.941800   -1.236300   -5.119100
H     -2.569700   -3.838400   -3.164500
H     -4.036100   -4.207300   -2.253100
H     -2.619700   -3.537100   -1.431300
H     -4.432100   -1.825500   -1.821500
H     -4.251300   -2.076400   -3.566800
H     -0.210500    0.652400   -1.323000
H     -1.759900   -1.176300   -0.652100
H     -3.290800    1.327700   -1.501100
H     -4.069400   -0.026600   -0.673300
H     -0.747200    1.759500    0.005200
H      0.105400    2.820100    3.367700
H      3.464300    1.721500   -1.972000
H      1.742100    1.364500   -2.203200
H      3.880400   -0.341400   -0.865600
H      1.849400   -0.548900    0.625700
H      0.036000   -3.107700   -2.938300
H      1.081200   -2.534300   -4.253600
H      2.880600   -4.104400   -3.456900
H      1.396800   -4.978100   -3.859800
H      1.805700   -4.657600   -2.170700
H      4.386200   -0.380300   -3.535200
H      3.479800   -1.663800   -4.361700
H      2.846400   -0.019800   -4.328300
H      5.119700    3.132900    1.307800
H      4.934800    2.751300   -0.409900
H      5.099800    1.450300    0.770500
H      3.753500    3.829500    3.152400
H      2.151500    3.507600    3.832800
H      3.709500    2.015100    4.953700
H      4.424200    1.509600    3.392800
H      0.954500   -0.025500    4.698700
H     -2.616900    2.932900    4.396600
H     -3.743000    1.570700    4.360300
H     -2.135200    1.041800    6.043400
H     -0.760900    1.533800    5.047400
H     -2.573000   -1.892000    4.017500
H     -5.060300   -0.093000    1.280600
H     -5.416800    1.396900    2.152600
H     -4.721600    0.018500    3.008300
H     -1.214900   -0.683000   -5.709900
H     -1.737600   -2.300800   -5.222300
H     -2.941500   -1.041400   -5.501800
