31
 xtb: 6.6.1 (8d0f1dd)
C     -2.179400   -0.689700    1.524800
C     -3.460900   -0.872900    1.987700
C     -4.550600   -0.429800    1.236500
C     -4.320600    0.199200    0.015300
C     -3.034700    0.379600   -0.449000
C     -1.937800   -0.062200    0.295000
C     -0.563000    0.109700   -0.160200
C     -0.154500    0.520600   -1.403600
C      1.251400    0.626900   -1.733300
O      1.584000    0.996500   -2.889400
C      2.176500    0.290900   -0.692700
C      3.579100    0.353900   -0.885000
C      4.426000    0.021500    0.155800
C      3.910500   -0.374100    1.392400
C      2.536100   -0.443200    1.594600
C      1.676800   -0.113900    0.557200
O      0.353900   -0.196700    0.791100
O      4.708600   -0.699900    2.421400
O      4.096900    0.731800   -2.061000
O     -1.006400    0.838900   -2.410600
O     -5.790300   -0.632300    1.731800
H     -1.346600   -1.039200    2.112700
H     -3.648500   -1.359500    2.931400
H     -5.152600    0.550400   -0.576600
H     -2.880600    0.871200   -1.393500
H      5.489100    0.077500   -0.014700
H      2.146800   -0.749400    2.549700
H      5.646900   -0.619300    2.184300
H      3.355700    0.930500   -2.685100
H     -0.443200    1.070200   -3.180100
H     -6.468700   -0.287200    1.130300
