49
 xtb: 6.6.1 (8d0f1dd)
C      6.021100   -2.423000   -0.047900
C      6.383300   -0.947300   -0.172600
C      5.657100   -0.241300   -1.319700
C      4.134000   -0.202800   -1.190900
C      3.649000    0.598500    0.023300
C      2.158200    0.680900    0.048600
C      1.374700    1.743800   -0.396100
C      0.033100    1.385700   -0.220700
C     -1.156200    2.077900   -0.495800
C     -2.411700    1.576600   -0.264000
N     -2.695100    0.335100    0.265000
C     -4.017300    0.241700    0.326100
C     -4.667600    1.425800   -0.163500
C     -3.662400    2.266900   -0.536000
O     -3.679800    3.514100   -1.063900
C     -4.959600    4.078200   -1.281400
C     -4.681300   -0.919100    0.827200
C     -6.033800   -1.194000    0.972200
C     -6.142500   -2.480000    1.514800
C     -4.864500   -2.958700    1.687700
N     -3.995900   -2.013000    1.271700
N      0.024300    0.125500    0.317600
C      1.282200   -0.317900    0.487500
C      1.580300   -1.659700    1.046700
H      6.193100   -2.936700   -0.991200
H      6.632100   -2.896700    0.717100
H      4.977600   -2.548100    0.226900
H      7.458200   -0.862400   -0.350300
H      6.171000   -0.438000    0.768800
H      6.029800    0.783900   -1.388000
H      5.911300   -0.746100   -2.255200
H      3.722500    0.256500   -2.093000
H      3.739800   -1.217600   -1.134900
H      4.064600    1.606900   -0.023300
H      4.003500    0.125900    0.940600
H      1.727100    2.674100   -0.796700
H     -1.087000    3.069800   -0.917600
H     -5.727900    1.575500   -0.209300
H     -4.781600    5.063300   -1.705700
H     -5.538100    3.467900   -1.980300
H     -5.507900    4.168900   -0.339800
H     -6.843700   -0.540000    0.715600
H     -7.052400   -2.995400    1.751400
H     -4.531700   -3.900400    2.075600
H     -2.991800   -2.071400    1.271500
H     -0.864700   -0.321400    0.525600
H      1.532400   -2.417300    0.264300
H      0.856800   -1.919000    1.815600
H      2.577900   -1.675800    1.476500
