22

C      3.661023   -0.752725    0.670964
C      2.197062   -0.670284    0.849517
C      1.170679   -0.174155    0.078508
C     -0.014794   -0.390901    0.802732
C      0.332499   -1.005207    1.976366
O      1.685695   -1.180373    2.013668
C     -1.284619   -0.001633    0.307920
C     -1.435460    0.603344   -0.893204
C     -0.208551    0.883392   -1.756643
O     -0.299903    1.428879   -2.850184
C      1.173844    0.458182   -1.215103
O      2.194102    0.655437   -1.860383
O     -2.636009    1.011804   -1.443676
C     -3.833873    0.792616   -0.711560
H      3.904619   -1.338339   -0.220747
H      4.088591    0.247892    0.555273
H      4.140839   -1.229336    1.531421
H     -0.206601   -1.365920    2.841673
H     -2.142091   -0.210780    0.938820
H     -4.667550    1.179547   -1.304972
H     -3.816284    1.335278    0.239044
H     -4.003217   -0.276720   -0.549434
