74
 xtb: 6.6.1 (8d0f1dd)
C     -6.127500    3.009700    0.459100
C     -5.262200    2.704600    1.686000
C     -3.886500    2.239800    1.283400
C     -3.611600    0.908800    1.015000
C     -2.308000    0.475900    0.633800
C     -1.347200    1.456800    0.315400
C     -0.135200    1.087000   -0.341600
C     -0.003600   -0.214900   -0.842700
C      1.111100   -0.550900   -1.667900
C      1.091500   -1.790200   -2.355300
C      2.107400   -2.094500   -3.281400
C      3.183700   -1.222500   -3.386200
C      3.265600   -0.077900   -2.624100
C      2.201400    0.350300   -1.788900
C      2.128500    1.647700   -1.152500
C      3.169900    2.615300   -1.128100
C      2.937500    3.918600   -0.730800
C      1.696500    4.345900   -0.287400
C      0.673000    3.385700   -0.144100
C      0.899800    2.047400   -0.553800
C     -0.597600    3.806700    0.395900
O     -0.806300    5.023600    0.683500
C     -1.611200    2.813600    0.616200
C     -2.869600    3.194300    1.128900
O     -3.162400    4.455800    1.438500
O      1.559100    5.632200    0.024100
O      4.480400    2.444400   -1.451400
C      5.006700    1.165500   -1.634400
O      4.453600    0.579700   -2.785500
C      4.909300    0.271400   -0.414300
C      5.157000   -1.090300   -0.555500
C      5.066700   -1.934600    0.529600
C      4.733300   -1.428800    1.785400
C      4.508200   -0.064500    1.931500
C      4.599000    0.777600    0.838400
O      4.651100   -2.297100    2.819200
O      2.125900   -3.196800   -4.026200
C      0.069100   -2.780300   -2.096500
O      0.042600   -3.870600   -2.740700
C     -0.888100   -2.505800   -1.066100
C     -1.779300   -3.512700   -0.632600
C     -2.607200   -3.275300    0.471600
C     -2.672600   -2.001200    1.020000
C     -2.005400   -0.906200    0.396100
C     -0.970700   -1.207800   -0.513000
O     -3.321900   -1.894900    2.185100
C     -3.377700   -4.408300    1.087800
C     -2.535500   -5.135100    2.138100
O     -1.804900   -4.724800   -1.183800
O     -4.586200   -0.018600    1.049300
H     -7.126700    3.302900    0.769300
H     -5.689700    3.828800   -0.106400
H     -6.204200    2.148200   -0.200600
H     -5.149300    3.617800    2.270900
H     -5.754000    1.965800    2.321900
H      3.999300   -1.466800   -4.046800
H      3.756200    4.618200   -0.767000
H     -2.362400    5.018000    1.253000
H      0.627300    5.774100    0.351600
H      6.059100    1.348500   -1.895800
H      5.422700   -1.487700   -1.522700
H      5.253300   -2.991300    0.428600
H      4.262800    0.346100    2.899100
H      4.431500    1.835500    0.971300
H      4.428500   -1.837900    3.643900
H      1.338500   -3.755600   -3.773800
H     -3.318700   -0.988900    2.525400
H     -3.657400   -5.109000    0.300700
H     -4.277900   -4.012200    1.557000
H     -1.634400   -5.540000    1.683200
H     -3.103900   -5.953400    2.570800
H     -2.249900   -4.448900    2.931100
H     -1.145100   -4.746500   -1.926500
H     -5.454700    0.380900    1.214600
