29
 xtb: 6.6.1 (8d0f1dd)
C      5.069900    1.045200    0.198500
O      4.044900    0.155300   -0.206400
C      2.756700    0.472200    0.096000
C      1.792600   -0.460000   -0.333800
C      0.428400   -0.224700   -0.070200
C      0.052300    0.945100    0.621100
C      1.011700    1.851800    1.037600
C      2.349900    1.613000    0.775200
O     -1.240800    1.230900    0.904500
C     -2.222400    0.386500    0.525100
C     -3.524900    0.747900    0.850200
C     -4.569000   -0.080000    0.485500
C     -4.338300   -1.262000   -0.196700
C     -3.044200   -1.642400   -0.531000
C     -1.955200   -0.809300   -0.168600
C     -0.591300   -1.162800   -0.496500
O     -0.307700   -2.218000   -1.112900
O     -2.864600   -2.793000   -1.190200
O      2.219500   -1.550200   -0.986800
H      5.094500    1.148600    1.286000
H      5.993100    0.586300   -0.146900
H      4.948200    2.025100   -0.269200
H      0.700100    2.737500    1.564000
H      3.077800    2.332700    1.108800
H     -3.688500    1.670100    1.381100
H     -5.580000    0.197800    0.735800
H     -5.147900   -1.912100   -0.484000
H     -1.899800   -2.926600   -1.355400
H      1.435100   -2.104900   -1.222900
