35
 xtb: 6.6.1 (8d0f1dd)
O     -1.144900   -2.192800   -0.050300
C     -0.654100   -1.067400   -0.046000
C     -1.455300    0.170500   -0.041000
C     -2.915800    0.030300    0.013600
C     -3.745700    0.812500   -0.793100
C     -5.114000    0.668400   -0.749800
C     -5.696600   -0.259300    0.113400
O     -7.046100   -0.358700    0.127100
C     -4.878300   -1.040300    0.924600
C     -3.506900   -0.898100    0.870700
C     -0.857400    1.396600   -0.104200
O     -1.559600    2.537500   -0.099200
C      0.785900   -0.847200   -0.081100
C      1.397600    0.391700   -0.131700
C      2.800600    0.143200   -0.159700
C      3.943000    0.940500   -0.208900
C      5.168000    0.312800   -0.217400
O      6.350400    0.972200   -0.260000
C      5.272300   -1.111000   -0.179100
O      6.487300   -1.683700   -0.188100
C      4.143100   -1.907400   -0.131500
C      2.913300   -1.266700   -0.122300
O      1.692200   -1.845300   -0.076000
C      0.613800    1.600800   -0.142200
O      1.055500    2.748400   -0.162400
H     -3.309500    1.526700   -1.472200
H     -5.756900    1.263300   -1.378500
H     -7.338500   -1.030000    0.763000
H     -5.314100   -1.760700    1.601000
H     -2.887000   -1.506200    1.510400
H     -0.921800    3.285300   -0.111000
H      3.848700    2.014100   -0.237400
H      6.222800    1.932600   -0.282100
H      7.175600   -0.993800   -0.218100
H      4.232500   -2.979000   -0.102700
