29

C     -2.342379    0.070030    0.661286
C     -3.516826    0.767910    0.953440
C     -4.495797    0.908756   -0.021675
C     -4.323472    0.358284   -1.286526
C     -3.147492   -0.339919   -1.577037
C     -2.139601   -0.478491   -0.611916
C     -0.936059   -1.246195   -0.952415
C      0.318991   -0.907972   -0.627573
C      1.501574   -1.722678   -1.017367
O      1.544464   -2.761610   -1.638681
C      2.617076   -0.962282   -0.468349
C      2.082003    0.162411    0.156990
O      0.709886    0.224688    0.078302
C      2.890071    1.091284    0.778231
C      4.264437    0.849403    0.750022
C      4.806723   -0.285301    0.120027
C      3.973262   -1.215978   -0.505140
O      5.143144    1.712937    1.338018
O     -5.625580    1.596870    0.306761
H     -1.595864   -0.045578    1.443040
H     -3.667914    1.194422    1.940940
H     -5.084621    0.457759   -2.053680
H     -3.021446   -0.769311   -2.568931
H     -1.102857   -2.148913   -1.537750
H      2.461875    1.961516    1.259574
H      5.884181   -0.435238    0.121480
H      4.369913   -2.097222   -0.997278
H      4.648778    2.451575    1.730977
H     -6.216472    1.608843   -0.463880
