44

C      4.801869   -0.898996    0.957485
C      3.633193   -0.015382    0.591299
C      3.921031    1.335874    0.361091
C      2.913130    2.215818    0.021196
O      3.298650    3.513432   -0.182539
C      1.593213    1.765024   -0.096523
C      0.539613    2.734155   -0.461898
C     -0.859910    2.290278   -0.593666
C     -1.169252    0.935446   -0.366145
C     -0.111267   -0.026026   -0.001651
C      1.246787    0.413235    0.124485
C      2.287643   -0.501533    0.476728
C      1.907173   -1.845461    0.690715
C      0.586993   -2.269109    0.567403
C     -0.437580   -1.376184    0.222211
C     -1.867795   -1.901786    0.102224
C     -2.910323   -0.855767   -0.277055
C     -2.514196    0.552033   -0.501588
C     -3.502309    1.495529   -0.851296
O     -4.828680    1.185183   -0.998700
C     -3.173393    2.824755   -1.070477
C     -1.853496    3.221943   -0.941832
O     -1.600092    4.546949   -1.172154
O     -4.103028   -1.148669   -0.406795
C     -1.936894   -2.990144   -0.991758
C     -2.325756   -2.490581    1.454882
O      2.841397   -2.788405    1.031770
O      0.824757    3.915877   -0.657927
H      4.937521   -1.686576    0.209799
H      4.660431   -1.330569    1.953205
H      5.740179   -0.333550    0.991153
H      4.938946    1.711275    0.446207
H      2.501359    4.037861   -0.416370
H      0.351110   -3.316071    0.743717
H     -4.945887    0.224275   -0.821099
H     -3.941535    3.544840   -1.339601
H     -0.637396    4.704731   -1.051388
H     -2.958503   -3.366103   -1.123580
H     -1.307891   -3.856111   -0.759264
H     -1.610217   -2.593115   -1.960768
H     -1.709953   -3.339597    1.770404
H     -2.279086   -1.733830    2.247648
H     -3.361134   -2.848849    1.409692
H      2.420578   -3.656101    1.142086
