44
 xtb: 6.6.1 (8d0f1dd)
C      4.730700   -0.930900    0.948000
C      3.602200   -0.027700    0.587800
C      3.881000    1.296500    0.363600
C      2.890500    2.221500    0.019500
O      3.276200    3.479000   -0.172300
C      1.551900    1.796300   -0.108000
C      0.536700    2.751400   -0.464800
C     -0.824200    2.293300   -0.588700
C     -1.151800    0.943600   -0.364700
C     -0.123900    0.005600   -0.009700
C      1.226500    0.433400    0.117600
C      2.256300   -0.483900    0.468200
C      1.889600   -1.838900    0.687600
C      0.567800   -2.226900    0.556300
C     -0.439200   -1.338500    0.214500
C     -1.836900   -1.876200    0.102300
C     -2.883100   -0.846100   -0.274600
C     -2.497400    0.520600   -0.492500
C     -3.498400    1.466100   -0.845600
O     -4.778500    1.134600   -0.982600
C     -3.156400    2.793200   -1.062900
C     -1.846100    3.221200   -0.941800
O     -1.593700    4.507800   -1.165600
O     -4.060500   -1.227800   -0.384500
C     -1.894000   -2.965800   -0.987200
C     -2.282000   -2.466600    1.455400
O      2.820300   -2.739500    1.021300
O      0.833700    3.970000   -0.666300
H      4.821600   -1.736100    0.222800
H      4.557500   -1.389600    1.918600
H      5.661000   -0.371700    0.978700
H      4.888800    1.671900    0.446900
H      2.474900    4.021700   -0.410000
H      0.321700   -3.262900    0.728800
H     -4.874300    0.157600   -0.798400
H     -3.923400    3.501000   -1.330000
H     -0.613700    4.659800   -1.041000
H     -2.927300   -3.275700   -1.124800
H     -1.303100   -3.830500   -0.706000
H     -1.519200   -2.571000   -1.929300
H     -1.687300   -3.334800    1.717000
H     -2.182200   -1.718700    2.239400
H     -3.326000   -2.763300    1.386600
H      2.434000   -3.623200    1.142200
