30
 xtb: 6.6.1 (8d0f1dd)
C      1.101900   -1.837000   -2.305100
N      0.689200   -0.948800   -1.253400
C     -0.533800   -0.943200   -0.628700
C     -0.492300    0.079400    0.312200
C      0.741700    0.718200    0.264300
C      1.458600    0.048000   -0.735800
S      3.052700    0.235900   -1.418200
C      3.839000    1.475000   -0.352200
C      0.908800    1.933700    1.120600
C     -0.069600    1.862200    2.320200
N     -1.399000    1.334600    2.120700
C     -1.568500    0.455700    1.195600
C     -2.775100   -0.270000    0.946800
C     -2.869000   -1.284200    0.031600
C     -1.713800   -1.703600   -0.840200
O     -1.869400   -2.623500   -1.653600
N     -3.984800   -1.998700   -0.182000
Cl    -4.172900    0.126700    1.918300
H      1.338500   -1.268300   -3.205900
H      0.287800   -2.528100   -2.510000
H      1.991700   -2.390100   -2.000300
H      3.292800    2.409200   -0.411000
H      3.888300    1.096200    0.662400
H      4.839900    1.599500   -0.752600
H      0.679000    2.818600    0.516500
H      1.914300    2.046900    1.520000
H      0.375100    1.236500    3.106000
H     -0.197100    2.862500    2.741500
H     -3.935000   -2.730700   -0.873300
H     -4.819000   -1.812600    0.345500
