30

C     -2.826714   -1.653576   -0.980919
C     -4.034732   -1.891438   -0.319936
C     -4.401104   -1.069776    0.733462
C     -3.583494   -0.015999    1.130856
C     -2.379062    0.228651    0.477483
C     -1.982568   -0.603479   -0.580921
C     -0.739680   -0.379031   -1.330597
C      0.446865   -0.059752   -0.796260
C      1.674253    0.136972   -1.614114
O      1.815288    0.067794   -2.815105
C      2.688458    0.441372   -0.613209
C      2.062712    0.409797    0.630698
O      0.721940    0.112332    0.556118
C      2.766989    0.660126    1.787493
C      4.126739    0.945435    1.655935
C      4.762848    0.978500    0.400958
C      4.032711    0.721453   -0.763221
O      4.826150    1.194697    2.801366
O     -4.011288    0.760767    2.173017
O     -5.580978   -1.299693    1.380218
H     -2.546642   -2.302833   -1.808230
H     -4.681432   -2.707957   -0.626014
H     -1.754035    1.063207    0.778558
H     -0.810001   -0.515355   -2.408817
H      2.290230    0.635658    2.760275
H      5.823145    1.202677    0.320030
H      4.495626    0.739392   -1.744267
H      5.756066    1.364323    2.575710
H     -3.336130    1.440862    2.340154
H     -5.622159   -0.605126    2.067415
