34

O      6.157075   -0.301171   -1.628156
C      4.955904   -0.302710   -0.984371
C      4.642152    0.661937   -0.032621
C      3.397429    0.622555    0.601068
C      2.471029   -0.380899    0.283954
C      1.147346   -0.403594    0.934438
C      0.027567   -0.072467    0.259527
O      0.004363    0.333362   -1.061268
C     -1.276703   -0.105877    0.892583
C     -2.554238    0.219614    0.229430
C     -3.275129    1.367436    0.590024
C     -4.487773    1.663796   -0.035534
C     -4.978629    0.817380   -1.022433
O     -6.165641    1.145818   -1.607091
C     -4.276889   -0.323386   -1.398268
C     -3.063807   -0.620551   -0.771253
C     -1.326471   -0.475018    2.178316
O     -0.202276   -0.814553    2.936946
C      1.045647   -0.787252    2.374549
O      2.040524   -1.066295    3.037480
C      2.808081   -1.348277   -0.674443
C      4.050029   -1.305249   -1.309668
H      6.709033    0.407062   -1.257294
H      5.347340    1.444067    0.231078
H      3.160460    1.375553    1.350407
H      0.914501    0.427276   -1.391440
H     -2.895212    2.041126    1.354255
H     -5.044635    2.553674    0.243531
H     -6.371557    0.480688   -2.284104
H     -4.650600   -0.987026   -2.171192
H     -2.512572   -1.509022   -1.070769
H     -2.221451   -0.557949    2.782067
H      2.111123   -2.144172   -0.929491
H      4.313984   -2.055876   -2.049744
