29

C     -4.643534    0.433400   -0.140758
C     -4.445078   -0.813794   -0.732215
C     -3.151817   -1.315908   -0.886939
C     -2.052692   -0.566690   -0.447838
C     -2.250817    0.678566    0.142680
C     -3.549132    1.180936    0.297076
C     -1.097842    1.472821    0.605980
O     -1.271801    2.569539    1.122873
C      0.267330    0.931697    0.439554
C      1.357968    1.696548    0.865259
C      2.652629    1.203920    0.716502
C      2.881958   -0.066464    0.164309
C      1.787089   -0.816089   -0.296094
C      0.475431   -0.318228   -0.147265
C     -0.689040   -1.102121   -0.613428
O     -0.508387   -2.198435   -1.135873
O      2.016876   -2.012461   -0.929421
C      4.280310   -0.539968    0.088724
O      5.238897    0.212755    0.007118
O      4.433089   -1.861346    0.249027
O      3.656345    2.035369    1.140682
H     -5.651440    0.825027   -0.020090
H     -5.298562   -1.396048   -1.073341
H     -3.007278   -2.290668   -1.349799
H     -3.712331    2.154089    0.757723
H      1.207077    2.679704    1.309209
H      1.157858   -2.434870   -1.158982
H      5.395990   -2.024932    0.192362
H      4.520902    1.683651    0.832965
