28
 xtb: 6.6.1 (8d0f1dd)
O     -0.860200    2.525900    0.161200
C     -1.377500    1.421500    0.182000
C     -2.778600    1.031000    0.233300
C     -2.812300   -0.370300    0.236200
C     -3.999100   -1.072200    0.279500
C     -5.170300   -0.326000    0.320300
C     -5.153900    1.065600    0.318000
C     -3.960200    1.763100    0.274700
O     -1.554200   -0.917400    0.191400
C     -0.669100    0.106100    0.158200
C      0.669100   -0.106200    0.110400
C      1.377500   -1.421500    0.086600
C      2.778600   -1.031000    0.035300
C      3.960200   -1.763100   -0.006100
C      5.153900   -1.065600   -0.049400
C      5.170300    0.326000   -0.051800
C      3.999100    1.072200   -0.011000
C      2.812300    0.370300    0.032400
O      1.554200    0.917400    0.077200
O      0.860200   -2.525900    0.107400
H     -4.003800   -2.148900    0.281200
H     -6.115900   -0.842900    0.354800
H     -6.085600    1.606200    0.350600
H     -3.924600    2.840500    0.272200
H      3.924600   -2.840500   -0.003600
H      6.085600   -1.606200   -0.082100
H      6.115900    0.842900   -0.086300
H      4.003800    2.148900   -0.012600
