28

O     -0.931414    2.496256    0.164500
C     -1.375028    1.369508    0.181929
C     -2.778105    0.978718    0.232864
C     -2.818761   -0.411897    0.236157
C     -4.017429   -1.090178    0.280136
C     -5.190778   -0.327738    0.321298
C     -5.142416    1.081863    0.317706
C     -3.918896    1.754931    0.272841
O     -1.572807   -0.989529    0.192111
C     -0.663923    0.065113    0.158075
C      0.663921   -0.065121    0.110510
C      1.375033   -1.369514    0.086651
C      2.778107   -0.978719    0.035711
C      3.918901   -1.754931   -0.004265
C      5.142416   -1.081860   -0.049132
C      5.190770    0.327742   -0.052737
C      4.017422    1.090182   -0.011562
C      2.818757    0.411898    0.032425
O      1.572803    0.989525    0.076475
O      0.931425   -2.496264    0.104090
H     -4.049807   -2.174355    0.282703
H     -6.156327   -0.829259    0.356648
H     -6.070192    1.650029    0.350321
H     -3.862633    2.838180    0.269409
H      3.862647   -2.838181   -0.000844
H      6.070193   -1.650028   -0.081752
H      6.156315    0.829270   -0.088090
H      4.049805    2.174359   -0.014127
