40

C     -3.401872   -2.097117   -0.415131
C     -2.262040   -1.168909   -0.811352
C     -2.390770    0.303598   -0.343018
C     -0.923689    0.598373   -0.213877
C     -0.208496   -0.597826   -0.153567
O     -1.029237   -1.699373   -0.266351
C      1.186756   -0.664617    0.032078
C      1.854624    0.586671    0.141192
C      1.133091    1.791799    0.076017
C     -0.259600    1.802401   -0.093931
O     -0.998330    2.949709   -0.129215
C      1.872571    3.054681    0.204533
O      1.267641    4.122142    0.167485
C      3.387556    3.035069    0.382835
O      4.031772    4.068174    0.474294
O      3.971184    1.796922    0.433828
C      3.237419    0.601282    0.319249
C      3.978075   -0.574051    0.393927
C      3.348751   -1.801232    0.292252
C      1.957341   -1.868025    0.111318
C      1.329309   -3.234821    0.006900
O      5.331331   -0.558022    0.567895
C     -3.126647    1.135024   -1.398538
C     -3.068086    0.468055    1.026094
H     -3.450262   -2.236488    0.669763
H     -3.236688   -3.093480   -0.840249
H     -4.365380   -1.724814   -0.774533
H     -2.156357   -1.214146   -1.905909
H     -0.401459    3.725789   -0.031195
H      3.946361   -2.708262    0.354087
H      0.838813   -3.357472   -0.963756
H      2.079651   -4.029005    0.089165
H      0.610460   -3.388546    0.817707
H      5.615455    0.372947    0.621449
H     -3.232918    2.180923   -1.092209
H     -2.596269    1.128752   -2.357831
H     -4.135482    0.743462   -1.570349
H     -4.130226    0.203878    0.979763
H     -2.597912   -0.158671    1.793101
H     -3.006440    1.505226    1.376366
