40
 xtb: 6.6.1 (8d0f1dd)
C     -3.257200   -2.139500    0.122600
C     -2.342400   -1.256600   -0.710600
C     -2.392900    0.278400   -0.447300
C     -0.925500    0.575100   -0.235400
C     -0.212100   -0.618100   -0.254900
O     -0.975400   -1.675100   -0.485500
C      1.190800   -0.677700   -0.051200
C      1.828700    0.571800    0.165000
C      1.104300    1.798800    0.186300
C     -0.306200    1.797100   -0.011900
O     -1.015600    2.917200    0.008800
C      1.790900    3.022700    0.411700
O      1.238100    4.144600    0.454100
C      3.277200    2.967400    0.611800
O      3.954000    3.961600    0.804900
O      3.892700    1.781900    0.576700
C      3.210200    0.602000    0.363000
C      3.971500   -0.570600    0.352900
C      3.319000   -1.788200    0.143500
C      1.956700   -1.868300   -0.056400
C      1.314800   -3.194500   -0.270800
O      5.296800   -0.562900    0.537200
C     -2.948400    1.019800   -1.665500
C     -3.184500    0.680900    0.800300
H     -3.046000   -2.030200    1.181500
H     -3.096900   -3.176600   -0.157600
H     -4.293000   -1.880300   -0.067800
H     -2.539200   -1.449100   -1.772400
H     -0.407100    3.684800    0.172300
H      3.927700   -2.677600    0.143500
H      0.804700   -3.215400   -1.231000
H      2.056200   -3.985900   -0.239600
H      0.562100   -3.375200    0.493000
H      5.627200    0.341200    0.671100
H     -2.907200    2.091600   -1.492900
H     -2.366300    0.792800   -2.555900
H     -3.982300    0.732100   -1.835700
H     -4.233800    0.427500    0.687800
H     -2.790700    0.196400    1.689600
H     -3.100700    1.756000    0.935100
