34

C      5.302003    0.263559    0.317572
C      3.851329   -0.110509    0.208094
C      3.478044   -1.451417    0.072559
C      2.132642   -1.801707   -0.029264
C      1.126588   -0.823391    0.001576
C      1.489032    0.514506    0.136267
C      2.848217    0.867028    0.239023
O      3.257178    2.170428    0.373226
C      0.443494    1.550243    0.169944
O      0.763918    2.730327    0.288794
C     -0.977443    1.174309    0.061860
C     -1.360660   -0.164842   -0.074038
C     -0.298264   -1.208080   -0.107434
O     -0.547638   -2.404149   -0.223825
C     -2.733481   -0.483411   -0.174616
C     -3.681047    0.548625   -0.136074
C     -3.277123    1.871957   -0.000437
C     -1.934953    2.197536    0.099117
O     -4.245978    2.829471    0.030547
O     -3.072405   -1.802424   -0.306420
C     -4.447377   -2.147208   -0.409336
O      1.873771   -3.140917   -0.158559
H      5.587003    0.922989   -0.508550
H      5.948452   -0.619437    0.275818
H      5.492365    0.769630    1.269520
H      4.231917   -2.235849    0.045018
H      2.462296    2.749733    0.380865
H     -4.746652    0.354823   -0.209539
H     -1.622582    3.233550    0.205100
H     -3.833818    3.705160    0.127999
H     -4.898807   -1.705946   -1.303875
H     -4.994557   -1.861007    0.494758
H     -4.512464   -3.235187   -0.506594
H      0.897002   -3.258395   -0.220640
