37
 xtb: 6.6.1 (8d0f1dd)
O     -4.874700   -0.036300   -1.389100
C     -3.713400   -0.410900   -1.112400
C     -2.875400    0.295700   -0.162500
C     -1.543900   -0.110000    0.113800
C     -0.827000    0.495200    1.133400
C     -1.375900    1.558100    1.856100
O     -0.623000    2.103500    2.823500
C     -2.652000    2.009800    1.554500
C     -3.409300    1.386500    0.565800
O     -4.643400    1.850900    0.353100
C     -3.178600   -1.614800   -1.722700
C     -1.901200   -1.958800   -1.475000
O     -1.261000   -3.050500   -2.005100
C      0.032300   -3.017000   -1.575300
O      0.825500   -3.873100   -1.888900
C     -1.002900   -1.202000   -0.651000
C      0.235400   -1.805000   -0.751300
C      1.544800   -1.446000   -0.332000
C      2.561100   -2.352800   -0.045100
N      3.680600   -1.699400    0.302600
C      3.469900   -0.344900    0.212900
C      4.347100    0.708600    0.422800
C      3.869500    1.986700    0.207000
C      2.563600    2.204900   -0.230900
C      1.687300    1.158900   -0.443800
C      2.130000   -0.136800   -0.187900
H      0.155900    0.149500    1.399300
H     -1.083600    2.834900    3.266200
H     -3.102200    2.835100    2.083300
H     -5.068900    1.300000   -0.356000
H     -3.820400   -2.186100   -2.372600
H      2.498500   -3.423200   -0.047300
H      4.546600   -2.135000    0.581100
H      5.365900    0.536000    0.729500
H      4.521100    2.832000    0.363300
H      2.232400    3.215700   -0.411800
H      0.689000    1.340600   -0.807400
