37

O     -4.903518   -0.107867   -1.237358
C     -3.733930   -0.435951   -1.057589
C     -2.918233    0.209608    0.009836
C     -1.562813   -0.154720    0.188657
C     -0.856019    0.431515    1.246598
C     -1.468023    1.374113    2.073418
O     -0.721126    1.906784    3.082837
C     -2.789367    1.752151    1.881018
C     -3.514528    1.164085    0.851116
O     -4.817939    1.568115    0.727895
C     -3.120918   -1.488685   -1.894600
C     -1.836374   -1.792757   -1.708120
O     -1.154583   -2.730117   -2.449993
C      0.130846   -2.657563   -1.978565
O      1.045787   -3.347758   -2.400197
C     -0.997838   -1.157681   -0.738346
C      0.237602   -1.641603   -0.902331
C      1.469475   -1.327370   -0.280047
C      2.162158   -2.174895    0.556092
N      3.307506   -1.531212    0.946077
C      3.370427   -0.279725    0.374976
C      4.348464    0.714859    0.492446
C      4.153648    1.902693   -0.218042
C      3.026960    2.085600   -1.015782
C      2.058528    1.081098   -1.124112
C      2.228136   -0.125870   -0.413395
H      0.174551    0.171759    1.465316
H     -1.258701    2.559202    3.562931
H     -3.270794    2.484824    2.520865
H     -5.224665    1.082556   -0.025843
H     -3.739712   -1.964920   -2.643716
H      1.952083   -3.179206    0.900671
H      4.014596   -1.917423    1.556532
H      5.230031    0.575518    1.109690
H      4.895586    2.695044   -0.147671
H      2.897168    3.017303   -1.561045
H      1.185530    1.238495   -1.750222
