30
 xtb: 6.6.1 (8d0f1dd)
O     -0.662100    2.052800   -0.148700
C     -0.146600    0.934800    0.016200
C      1.298100    0.792300    0.133500
C      1.911400   -0.461200    0.322600
C      3.283700   -0.575800    0.432700
C      4.101100    0.558800    0.357100
O      5.425200    0.387100    0.467200
C      3.515500    1.800000    0.171700
C      2.129800    1.933600    0.058900
O      1.652300    3.165200   -0.119100
C      1.105100   -1.689800    0.406300
C     -0.356700   -1.540400    0.286200
C     -1.128300   -2.693400    0.363800
C     -2.505600   -2.616200    0.256200
C     -3.119900   -1.395000    0.071800
C     -2.368500   -0.215800   -0.009600
O     -2.918800    0.992700   -0.187300
C     -4.327900    1.118300   -0.302400
C     -0.958200   -0.284100    0.098800
O      1.622400   -2.789500    0.567900
H      3.726900   -1.548300    0.576900
H      5.905300    1.228800    0.394100
H      4.106400    2.700600    0.107800
H      0.661200    3.114100   -0.183700
H     -0.624100   -3.636200    0.508400
H     -3.103500   -3.511500    0.316000
H     -4.193100   -1.354300   -0.009900
H     -4.701900    0.572500   -1.171100
H     -4.500200    2.183600   -0.436800
H     -4.828700    0.776100    0.605700
