106

C     13.315334    0.575211    2.903009
C     11.868241    0.829062    2.563279
C     11.168117    1.766264    3.516702
C     11.317215    0.236744    1.483055
C      9.896373    0.341747    0.986933
C      9.843180    0.988351   -0.408428
C      8.477485    1.194806   -1.051423
C      8.565279    1.678472   -2.477877
C      7.302242    0.965881   -0.428981
C      5.913756    1.158886   -0.985488
C      5.394013   -0.058163   -1.776364
C      4.607316   -1.074268   -0.962960
C      5.405862   -1.787268    0.094967
C      3.322446   -1.340524   -1.260019
C      2.441745   -2.414575   -0.664506
C      1.273923   -1.880449    0.127624
C      1.236741   -1.846673    1.467725
O      2.343471   -2.196084    2.211849
C     -0.003004   -1.527628    2.223786
C     -1.234722   -1.200098    1.461107
C     -2.436461   -0.894678    2.321814
C     -1.194131   -1.224758    0.111191
C     -2.392611   -1.056875   -0.648881
C     -2.871930    0.050485   -1.342815
C     -4.068456   -0.381329   -1.981029
C     -4.307978   -1.702267   -1.647379
O     -3.287387   -2.084376   -0.809320
C     -5.375601   -2.531160   -2.106253
C     -5.675432   -3.765910   -1.667806
C     -6.809440   -4.525344   -2.314162
C     -4.986491   -4.513498   -0.554223
C     -2.244620    1.398819   -1.472668
C     -2.473099    2.316983   -0.269119
C     -3.667544    3.271822   -0.388676
C     -5.036653    2.628973   -0.421837
C     -5.438859    1.899732    0.839743
C     -5.805227    2.743903   -1.520783
C     -7.185495    2.223693   -1.875790
C     -8.108234    1.762254   -0.784582
C     -8.791385    2.656282    0.064011
O     -8.675514    4.008632   -0.025286
C     -9.638383    2.183981    1.065776
C     -9.831774    0.809059    1.252312
C     -9.153663   -0.092423    0.431568
C     -8.314296    0.392062   -0.566684
O     -7.659991   -0.508668   -1.358529
C    -10.733790    0.323165    2.346426
C      0.070465   -1.498423   -0.650605
O      0.123967   -1.384285   -1.867555
O      0.000527   -1.620406    3.446301
H     13.873258    1.520387    2.938506
H     13.812553   -0.065611    2.167423
H     13.386318    0.089799    3.877143
H     10.184741    2.091084    3.167734
H     11.772369    2.676177    3.670321
H     11.044292    1.285265    4.490671
H     11.949276   -0.409084    0.867402
H      9.470312   -0.670143    0.941721
H      9.276338    0.912465    1.686155
H     10.443512    0.381363   -1.095596
H     10.328878    1.970895   -0.337558
H      9.414105    2.360818   -2.615457
H      8.711541    0.832549   -3.159499
H      7.682164    2.228656   -2.817491
H      7.300428    0.592705    0.588624
H      5.896995    2.044278   -1.633825
H      5.235895    1.412068   -0.154960
H      4.770426    0.330579   -2.590506
H      6.226455   -0.575445   -2.270268
H      6.358115   -2.145006   -0.316105
H      4.905371   -2.660067    0.515816
H      5.599809   -1.104653    0.927762
H      2.840585   -0.771891   -2.064312
H      2.060106   -3.046871   -1.480912
H      3.023314   -3.118060   -0.060453
H      2.032309   -2.728862    2.973827
H     -3.339693   -0.662949    1.758396
H     -2.217316   -0.016714    2.940439
H     -2.648550   -1.745985    2.985053
H     -4.694600    0.220589   -2.639165
H     -5.970622   -2.104515   -2.910808
H     -6.408294   -5.385375   -2.851787
H     -7.381756   -3.927349   -3.024780
H     -7.521543   -4.878235   -1.562488
H     -5.719798   -5.113151    0.000150
H     -4.515765   -3.864308    0.186074
H     -4.238201   -5.199596   -0.972316
H     -2.565257    1.890280   -2.404746
H     -1.163362    1.242805   -1.587101
H     -2.529944    1.745741    0.667152
H     -1.586567    2.961474   -0.169502
H     -3.651337    3.975228    0.454551
H     -3.510714    3.894590   -1.277463
H     -5.670473    0.856744    0.629395
H     -6.285450    2.388096    1.332438
H     -4.626499    1.911072    1.575990
H     -5.375025    3.295992   -2.366149
H     -7.713673    3.018154   -2.434899
H     -7.041538    1.421038   -2.620833
H     -8.019460    4.237692   -0.713527
H    -10.148295    2.898306    1.703251
H     -9.296308   -1.169337    0.549601
H     -7.343747   -1.220197   -0.766252
H    -11.013121   -0.720797    2.198690
H    -11.655508    0.903993    2.368916
H    -10.232577    0.418182    3.310009
