32
 xtb: 6.6.1 (8d0f1dd)
C      3.644000    0.660600    0.618000
C      2.619800    1.498800    0.998300
C      1.306300    1.094900    0.787700
C      1.017200   -0.151600    0.199200
C      2.079800   -0.988200   -0.170200
C      3.381700   -0.585500    0.034000
C      4.538500   -1.463800   -0.381000
O      5.656300   -1.365800    0.472700
N     -0.265600   -0.548800   -0.006900
C     -1.261900    0.237100    0.338800
C     -0.981800    1.537700    0.951700
C     -1.963400    2.399600    1.334900
C     -3.332300    2.074200    1.152000
O     -4.273300    2.812400    1.475000
C     -3.633500    0.749400    0.526800
C     -2.623500   -0.133400    0.138400
C     -3.017500   -1.430100   -0.472200
O     -4.209600   -1.743100   -0.640000
N     -2.045500   -2.263100   -0.840700
N     -4.925800    0.510500    0.385300
O      0.290900    1.918400    1.156700
H      4.671300    0.954300    0.768000
H      2.807300    2.459200    1.449600
H      1.851200   -1.941800   -0.617000
H      4.897500   -1.135800   -1.362400
H      4.205900   -2.504800   -0.471600
H      5.426700   -1.723400    1.341200
H     -1.707800    3.346700    1.783300
H     -1.079200   -1.985200   -0.694700
H     -2.307900   -3.141900   -1.256400
H     -5.562000    1.229100    0.706100
H     -5.203900   -0.376700   -0.033100
