76
 xtb: 6.6.1 (8d0f1dd)
C      5.658200    0.944800   -2.127400
C      5.495800    0.307400   -0.782500
C      4.298300    0.190300   -0.135400
C      3.026300    0.631500   -0.581500
C      1.902700    0.419800    0.150700
C      0.571900    0.802300   -0.226200
C     -0.507200    0.406100    0.517500
C     -0.435900   -0.231100    1.833500
O      0.557300   -0.480900    2.510300
C     -1.842400   -0.539500    2.304700
C     -2.617400   -0.529600    0.997300
C     -1.987800    0.638100    0.204300
C     -2.428300    0.473400   -1.268100
C     -3.758000   -0.294700   -1.413300
C     -4.677800    0.046300   -0.239600
C     -4.159700   -0.658900    1.035700
C     -4.831400    0.021900    2.234000
C     -6.355100   -0.014200    2.100100
C     -6.860500    0.586600    0.783300
C     -6.200600   -0.026200   -0.484900
C     -6.570100    0.898400   -1.658400
C     -6.755200   -1.413100   -0.820200
O     -8.274500    0.550200    0.728000
C     -4.419800   -2.172600    1.113800
C     -2.287800    2.048300    0.745800
C      0.442100    1.628900   -1.471800
C      6.661300   -0.216300   -0.136700
C      7.921900   -0.216600   -0.638300
C      9.019800   -0.761700    0.080700
C     10.299700   -0.806900   -0.370100
C     10.736400   -0.288100   -1.706200
C     11.345900   -1.392200    0.468500
O     12.522500   -1.482500    0.142500
O     10.929600   -1.839200    1.657800
H      6.040500    0.214300   -2.838100
H      6.374000    1.762200   -2.065100
H      4.721900    1.335700   -2.507200
H      4.300200   -0.295900    0.833200
H      2.965600    1.133500   -1.534200
H      2.006400   -0.105300    1.088100
H     -1.862800   -1.488000    2.840700
H     -2.168300    0.238700    2.996100
H     -2.269500   -1.415600    0.451000
H     -2.560100    1.456600   -1.720700
H     -1.658400   -0.059000   -1.826100
H     -4.213900   -0.008800   -2.359300
H     -3.574200   -1.368400   -1.454200
H     -4.527800    1.112400   -0.056600
H     -4.507800    1.061300    2.300100
H     -4.548400   -0.479800    3.160900
H     -6.805100    0.552200    2.919000
H     -6.719900   -1.038800    2.187500
H     -6.628100    1.659500    0.785700
H     -6.354000    0.427600   -2.613100
H     -6.032400    1.842100   -1.602500
H     -7.636200    1.114300   -1.618500
H     -7.736600   -1.310800   -1.279200
H     -6.852600   -2.049900    0.051000
H     -6.102800   -1.906400   -1.534900
H     -8.561300   -0.372100    0.778600
H     -5.424100   -2.409900    1.440000
H     -3.738200   -2.612000    1.839800
H     -4.248300   -2.654400    0.155800
H     -3.323100    2.345200    0.614400
H     -1.665600    2.773500    0.225900
H     -2.045200    2.112400    1.803600
H      1.173200    2.433500   -1.442300
H     -0.541800    2.065100   -1.570500
H      0.643600    1.019700   -2.351200
H      6.505800   -0.653400    0.842000
H      8.123500    0.201700   -1.611400
H      8.808800   -1.168600    1.060500
H     11.806000   -0.448200   -1.818200
H     10.217700   -0.808700   -2.508900
H     10.530100    0.776500   -1.792100
H     11.669300   -2.214100    2.170700
