76

C      5.682963    0.639434   -2.297428
C      5.534281    0.187504   -0.865465
C      4.367708    0.164158   -0.185111
C      3.053374    0.557121   -0.660154
C      1.958304    0.490953    0.119894
C      0.585856    0.860848   -0.253902
C     -0.499103    0.551631    0.500011
C     -0.475908   -0.121362    1.870726
O      0.505507   -0.281209    2.580180
C     -1.862036   -0.508867    2.311667
C     -2.601239   -0.451356    0.983250
C     -2.007377    0.756706    0.212047
C     -2.480798    0.614502   -1.266235
C     -3.862621   -0.063536   -1.467883
C     -4.767549    0.120838   -0.241570
C     -4.160885   -0.624976    0.998572
C     -4.861409   -0.063297    2.255262
C     -6.391345   -0.172280    2.176740
C     -6.988108    0.437159    0.902404
C     -6.314629   -0.014702   -0.435466
C     -6.790412    0.973098   -1.538730
C     -6.779767   -1.406874   -0.898699
O     -8.394354    0.199735    0.885369
C     -4.375072   -2.166155    0.983233
C     -2.349617    2.148558    0.794350
C      0.474596    1.662707   -1.532690
C      6.747591   -0.254977   -0.168493
C      7.995565   -0.284232   -0.667273
C      9.134043   -0.735244    0.111725
C     10.418438   -0.793706   -0.295183
C     10.949190   -0.415715   -1.648313
C     11.474742   -1.271862    0.637407
O     12.663660   -1.339931    0.375156
O     11.020411   -1.644564    1.845472
H      6.085054   -0.171436   -2.915302
H      6.360321    1.498824   -2.359622
H      4.744701    0.947954   -2.762792
H      4.379124   -0.182736    0.849846
H      2.973837    0.903957   -1.682611
H      2.104675    0.110123    1.126576
H     -1.857791   -1.517068    2.732973
H     -2.221774    0.214808    3.046796
H     -2.225668   -1.328525    0.421477
H     -2.533520    1.607477   -1.729425
H     -1.754663    0.038745   -1.852956
H     -4.308113    0.358212   -2.373537
H     -3.716035   -1.129444   -1.675578
H     -4.682666    1.188993   -0.021906
H     -4.592814    0.991241    2.392224
H     -4.522095   -0.589453    3.155884
H     -6.828032    0.334543    3.047681
H     -6.714806   -1.214015    2.282181
H     -6.871701    1.525608    0.991983
H     -6.453317    0.664418   -2.533545
H     -6.418543    1.987448   -1.355520
H     -7.884569    1.029001   -1.578141
H     -7.779771   -1.360513   -1.348544
H     -6.862516   -2.123672   -0.082252
H     -6.109221   -1.821424   -1.658261
H     -8.543351   -0.759454    0.924575
H     -5.389542   -2.476226    1.226219
H     -3.744807   -2.652595    1.738244
H     -4.115566   -2.604003    0.013731
H     -3.405711    2.409602    0.739109
H     -1.811494    2.935282    0.251645
H     -2.062065    2.241795    1.848025
H      1.251530    2.434960   -1.584090
H     -0.461091    2.217328   -1.608317
H      0.566124    1.011517   -2.408009
H      6.599571   -0.587515    0.859966
H      8.179202    0.042494   -1.684158
H      8.889662   -1.044661    1.128613
H     11.511254   -1.249823   -2.084104
H     10.169972   -0.152167   -2.366869
H     11.621446    0.445292   -1.562994
H     11.830772   -1.924994    2.318472
