42

C     -4.140376   -1.536420   -0.650333
C     -4.010437   -0.009518   -0.760420
C     -2.825572    0.424872   -1.637191
C     -1.497890    0.028605   -1.008624
C     -1.497243    0.366539    0.446974
C     -2.690139    0.598065    1.146066
O     -3.929139    0.550165    0.564039
C     -2.684140    0.920809    2.519813
C     -1.487764    0.996239    3.235964
C     -0.327244    0.743743    2.535589
C     -0.322823    0.434167    1.176619
O      0.944249    0.218772    0.680465
C      1.810643    0.397180    1.752204
C      3.144086    0.270601    1.722734
C      3.939669   -0.075890    0.538966
C      5.012204   -0.967622    0.683965
C      5.814465   -1.304111   -0.410571
C      5.549356   -0.736335   -1.651509
C      4.502467    0.162096   -1.812234
C      3.701945    0.497098   -0.717411
O      6.304872   -1.034348   -2.746133
C      1.057743    0.735770    2.988794
O      1.476007    0.951972    4.104922
C     -5.305950    0.546170   -1.370365
H     -3.284249   -1.985854   -0.137019
H     -5.021226   -1.806939   -0.056255
H     -4.233280   -2.001842   -1.637069
H     -2.901455    0.004361   -2.646902
H     -2.839402    1.518852   -1.742490
H     -1.322754   -1.046662   -1.128841
H     -0.687717    0.556040   -1.525692
H     -3.628839    1.106708    3.027029
H     -1.468962    1.238069    4.292889
H      3.705944    0.408180    2.645019
H      5.227671   -1.415307    1.652085
H      6.633429   -2.002781   -0.273077
H      4.311727    0.606279   -2.784956
H      2.898906    1.216106   -0.858966
H      6.996062   -1.664056   -2.483663
H     -5.473487    0.163564   -2.382578
H     -5.278233    1.641219   -1.413020
H     -6.173124    0.285444   -0.752442
