129
 xtb: 6.6.1 (8d0f1dd)
C      1.519800    3.677500   -1.977700
C      0.897700    4.544300   -2.847600
C      1.621300    5.594100   -3.412500
C      2.972800    5.748800   -3.091900
C      3.594400    4.860100   -2.245500
C      2.881300    3.800200   -1.672500
C      3.468100    2.781400   -0.842000
C      4.775800    2.474300   -0.735300
C      5.279800    1.359200    0.034700
C      4.356400    0.263500    0.385400
C      4.629400   -0.463500    1.508900
O      5.767000   -0.407000    2.169600
C      3.590100   -1.358700    2.132900
C      2.541700   -1.807700    1.131800
O      1.760600   -2.817700    1.522100
C      2.380800   -1.196100   -0.056700
C      3.310000   -0.184000   -0.541600
O      3.296600    0.181000   -1.717400
C      1.310400   -1.607000   -1.040100
C      1.630200   -2.984000   -1.644900
O      3.032100   -3.181500   -1.621300
C      1.135700   -3.066300   -3.107100
O     -0.013300   -2.277200   -3.328900
C      0.901400   -4.540200   -3.487000
O      2.164100   -5.167200   -3.532300
C      0.157500   -4.730500   -4.828200
O      0.152900   -6.106800   -5.149000
C      0.823900   -3.990300   -5.993400
O      0.330000   -2.665300   -6.033000
C     -0.075800   -1.455200   -0.456400
C     -0.354700   -0.116600    0.047200
C     -1.536800    0.128200    0.874000
C     -1.707200    1.379300    1.506000
O     -0.836100    2.352400    1.314500
C     -2.831600    1.689900    2.330800
C     -2.936300    2.878300    2.974100
C     -4.012200    3.297100    3.823100
C     -5.119400    2.487200    4.115200
C     -6.130800    2.935900    4.932600
C     -6.073900    4.215200    5.489800
C     -4.976100    5.033600    5.210000
C     -3.968100    4.579500    4.394500
O     -7.038700    4.700500    6.293400
C     -2.489800   -0.921800    1.009400
O     -3.351600   -1.076200    1.875600
C     -2.464300   -1.954000   -0.112500
C     -1.054100   -2.389400   -0.429300
O     -0.925300   -3.685400   -0.694500
O     -3.257300   -3.054400    0.220300
C     -3.092900   -1.210700   -1.345400
O     -2.144900   -0.302300   -1.842900
C     -2.657400    0.543500   -2.853900
C     -3.093100   -0.298500   -4.060400
C     -4.141300   -1.330900   -3.604400
C     -3.581600   -2.176900   -2.438100
O     -2.614600   -3.070500   -2.915500
O     -4.523200   -2.153900   -4.676300
O     -3.613300    0.554300   -5.050300
C     -1.547700    1.541300   -3.209400
O     -2.019300    2.646400   -3.926600
O      0.492100    0.794500   -0.115300
O      4.122000   -2.453000    2.831700
C      2.825300   -0.493100    3.196700
O      1.934500   -1.377100    3.839900
C      1.022100   -0.766500    4.742700
C      1.711100    0.261400    5.671900
C      3.234200    0.035700    5.636700
C      3.794300    0.165700    4.208800
O      4.089000    1.488100    3.846000
O      3.545500   -1.209700    6.211600
O      1.232300    0.150900    6.986100
C     -0.168300   -0.143900    3.989000
O     -0.996500    0.632700    4.806500
O      6.456700    1.344600    0.445800
O      1.063500    6.479700   -4.263700
H      0.968100    2.853500   -1.550300
H     -0.143900    4.402400   -3.098900
H      3.512500    6.572900   -3.530600
H      4.637700    4.992800   -2.008300
H      2.748700    2.174900   -0.307600
H      5.537700    3.080000   -1.205200
H      6.374300    0.246100    1.703800
H      2.105500   -3.189500    2.358300
H      1.381200   -0.865300   -1.847800
H      1.163800   -3.761300   -1.032800
H      3.212700   -4.005500   -2.104200
H      1.963200   -2.676400   -3.716800
H     -0.070500   -2.173000   -4.299900
H      0.285300   -5.000900   -2.698200
H      2.054700   -6.015400   -3.995400
H     -0.864300   -4.348800   -4.722400
H     -0.514600   -6.562100   -4.617200
H      1.912400   -4.003500   -5.865100
H      0.567400   -4.526300   -6.914100
H      0.739600   -2.194000   -6.771600
H     -0.114700    1.995100    0.706000
H     -3.577500    0.923300    2.439600
H     -2.130500    3.589200    2.843900
H     -5.179600    1.494600    3.699400
H     -6.973700    2.295100    5.145300
H     -4.944300    6.018200    5.648200
H     -3.124600    5.218700    4.184300
H     -7.751400    4.054500    6.423700
H     -1.795600   -4.115200   -0.533500
H     -3.700800   -2.842100    1.068800
H     -3.980600   -0.662400   -0.980000
H     -3.528700    1.103900   -2.475700
H     -2.209200   -0.831700   -4.446400
H     -5.043100   -0.797100   -3.283200
H     -4.387500   -2.798600   -2.031000
H     -1.730000   -2.647900   -2.953300
H     -3.902800   -2.901300   -4.710700
H     -4.094200    0.014200   -5.697700
H     -1.121800    1.921400   -2.278000
H     -0.753000    1.016100   -3.754800
H     -2.526100    2.321100   -4.689800
H      4.956000   -2.739800    2.432200
H      2.285300    0.295900    2.652500
H      0.657800   -1.596900    5.357300
H      1.463500    1.276400    5.344400
H      3.722600    0.784100    6.270800
H      4.755800   -0.358300    4.196100
H      3.324000    2.062100    3.993500
H      3.354300   -1.912800    5.571000
H      1.734200   -0.551900    7.433200
H      0.207000    0.535100    3.218700
H     -0.731700   -0.942200    3.485800
H     -1.315600    0.099000    5.548600
H      0.127700    6.270200   -4.414100
