129

C      1.412634    3.897804   -3.723322
C      0.893144    4.941372   -4.494775
C      1.254376    6.252183   -4.203751
C      2.124678    6.536396   -3.154187
C      2.645267    5.492346   -2.382760
C      2.293340    4.169567   -2.669562
C      2.845641    3.063089   -1.889027
C      4.077875    2.599822   -2.135599
C      4.720630    1.491117   -1.387225
C      3.897453    0.430350   -0.737122
C      4.268003    0.000676    0.487064
O      5.446839    0.440896    1.087393
C      3.479630   -1.020875    1.305725
C      2.304182   -1.598003    0.499377
O      1.541800   -2.564641    1.143249
C      1.967420   -1.251793   -0.757398
C      2.767247   -0.200831   -1.459275
O      2.530508    0.109549   -2.621417
C      0.747129   -1.789608   -1.539896
C      0.927711   -3.306607   -1.941939
O      0.596507   -4.180692   -0.849484
C      2.339827   -3.672646   -2.487781
O      2.762343   -2.744581   -3.480017
C      2.367892   -5.100573   -3.083051
O      2.074711   -6.071905   -2.059220
C      3.691091   -5.489757   -3.779890
O      3.614591   -6.893607   -4.087631
C      4.941342   -5.245047   -2.925691
O      5.262798   -3.852843   -2.892000
C     -0.597030   -1.396298   -0.862955
C     -0.590117   -0.102946   -0.078242
C     -1.668679    0.102892    0.930035
C     -1.833860    1.312578    1.508095
O     -0.970897    2.374787    1.275980
C     -2.966838    1.693270    2.347730
C     -3.152228    2.921729    2.868095
C     -4.314036    3.390770    3.645984
C     -5.421592    2.588328    3.960167
C     -6.510361    3.109180    4.671896
C     -6.492618    4.437749    5.075755
C     -5.407137    5.249062    4.787767
C     -4.323135    4.728763    4.073919
O     -7.532393    4.985600    5.764260
C     -2.619132   -1.016462    1.117462
O     -3.024012   -1.359180    2.226855
C     -3.040189   -1.723761   -0.173242
C     -1.776793   -2.053487   -0.956358
O     -1.909403   -3.149154   -1.796291
O     -3.670263   -2.976784    0.145732
C     -4.092007   -0.812900   -0.875109
O     -3.444293    0.352634   -1.413339
C     -4.371360    1.356295   -1.873081
C     -5.243495    0.796989   -3.005995
C     -5.933725   -0.494083   -2.544675
C     -4.916226   -1.497231   -1.980777
O     -4.118321   -1.956483   -3.082159
O     -6.627626   -1.059585   -3.666205
O     -6.234646    1.747525   -3.405393
C     -3.572442    2.595317   -2.305922
O     -2.756894    2.325002   -3.447335
O      0.248540    0.778681   -0.266786
O      4.351841   -2.140361    1.579578
C      2.992354   -0.452350    2.717847
O      2.084662   -1.444503    3.294098
C      1.732850   -1.299145    4.674169
C      2.971891   -1.350768    5.593836
C      4.279664   -1.237196    4.797304
C      4.160285   -0.164185    3.705858
O      4.013703    1.146027    4.276790
O      4.597104   -2.539402    4.270331
O      2.992449   -2.606954    6.298524
C      0.812654   -0.086469    4.902665
O      0.513611    0.114360    6.278228
O      5.945813    1.493668   -1.242532
O      0.773515    7.300980   -4.931346
H      1.130177    2.871513   -3.950845
H      0.213135    4.712513   -5.310775
H      2.390960    7.564586   -2.935444
H      3.327342    5.724036   -1.566729
H      2.183589    2.639640   -1.140580
H      4.721096    3.068778   -2.873896
H      6.001827    0.925602    0.432505
H      1.869612   -2.641783    2.069171
H      0.702254   -1.259055   -2.500584
H      0.218273   -3.515940   -2.750046
H      0.898093   -5.081629   -1.095885
H      3.032552   -3.636917   -1.637710
H      3.743848   -2.778995   -3.490396
H      1.570301   -5.200015   -3.827143
H      2.372465   -6.930467   -2.431735
H      3.788904   -4.934215   -4.721521
H      3.247197   -6.966995   -4.987099
H      4.799029   -5.598312   -1.901569
H      5.796257   -5.782349   -3.346361
H      6.118272   -3.778685   -2.431765
H     -0.287282    2.100472    0.625744
H     -3.727929    0.938298    2.517849
H     -2.391019    3.682659    2.692649
H     -5.459818    1.545512    3.664874
H     -7.352499    2.461777    4.897648
H     -5.402037    6.287577    5.107851
H     -3.488970    5.389702    3.851261
H     -8.246508    4.328319    5.825977
H     -2.758123   -3.591597   -1.584767
H     -3.154922   -3.366872    0.881984
H     -4.795308   -0.476583   -0.099449
H     -5.001246    1.659780   -1.026125
H     -4.636661    0.574520   -3.893234
H     -6.695882   -0.256625   -1.792709
H     -5.450962   -2.372644   -1.598133
H     -3.304006   -1.414733   -3.121813
H     -5.981370   -1.658076   -4.098825
H     -6.884150    1.239102   -3.934997
H     -4.230811    3.438815   -2.541302
H     -2.898968    2.897008   -1.498974
H     -3.313619    2.460204   -4.231751
H      4.489520   -2.598185    0.731607
H      2.405721    0.456216    2.536713
H      1.120273   -2.181348    4.905963
H      2.923718   -0.571271    6.358661
H      5.090227   -0.980854    5.488685
H      5.120506   -0.137014    3.194665
H      3.335759    1.157215    4.974670
H      4.751003   -2.456481    3.303962
H      3.480558   -3.215988    5.704143
H      1.251506    0.838739    4.517789
H     -0.126737   -0.225141    4.355926
H      0.175054   -0.728557    6.639459
H      0.184004    6.951082   -5.619597
