50

C     -7.862424   -1.746175   -2.401933
C     -8.302201   -0.677197   -1.435014
C     -7.441062   -0.214565   -0.414935
C     -7.889628    0.768484    0.485807
C     -9.176554    1.298251    0.386277
C    -10.030547    0.838060   -0.608970
C     -9.600465   -0.145870   -1.507309
O    -10.450286   -0.614040   -2.478391
Cl   -11.626270    1.485737   -0.717586
C     -6.091424   -0.774367   -0.240511
C     -4.986002   -0.013836   -0.219308
C     -3.659788   -0.566874   -0.054962
C     -2.551951    0.189787   -0.043831
C     -1.225090   -0.362938    0.121302
C     -0.116993    0.393462    0.129817
C      1.209898   -0.159109    0.295552
C      2.318061    0.597267    0.302567
C      3.644965    0.045004    0.469080
C      4.753145    0.801382    0.474191
C      6.080012    0.249126    0.640966
C      7.188267    1.005303    0.644625
C      8.514790    0.451175    0.811250
C      9.621578    1.209377    0.816868
C     10.994587    0.688511    0.983301
O     11.969352    1.425823    0.982385
O     11.012892   -0.658057    1.129402
C     12.321896   -1.204243    1.292907
H     -7.924279   -2.729054   -1.924278
H     -6.834972   -1.571990   -2.738463
H     -8.477688   -1.763926   -3.306844
H     -7.237582    1.119872    1.283813
H     -9.504040    2.056293    1.092170
H    -11.294223   -0.134834   -2.380169
H     -6.036013   -1.856037   -0.147989
H     -5.064435    1.065269   -0.338467
H     -3.583705   -1.646083    0.062709
H     -2.628366    1.268801   -0.163176
H     -1.148905   -1.441809    0.241831
H     -0.193307    1.472290    0.008708
H      1.285902   -1.237754    0.418080
H      2.241596    1.675865    0.179601
H      3.720705   -1.033438    0.593802
H      4.676170    1.879612    0.348855
H      6.155048   -0.829269    0.767244
H      7.110337    2.083632    0.518164
H      8.587432   -0.627826    0.934852
H      9.575672    2.286457    0.695950
H     12.938790   -0.993449    0.413671
H     12.225913   -2.288525    1.396313
H     12.791195   -0.810549    2.200078
