31

C     -2.981773   -1.016779    0.227920
C     -4.332433   -0.753948   -0.039496
C     -4.710175    0.502769   -0.489947
C     -3.762854    1.496390   -0.681616
C     -2.417211    1.231238   -0.413848
C     -1.991623   -0.028456    0.058031
C     -0.553845   -0.247343    0.312170
O      0.293042    0.685130   -0.374103
C      1.691644    0.467426   -0.314659
C      2.487299    1.301275   -1.101356
C      3.865351    1.162049   -1.059445
C      4.459479    0.206865   -0.241442
C      3.656596   -0.619756    0.541324
C      2.254287   -0.510215    0.519853
C      1.407380   -1.327457    1.278438
C      0.026904   -1.206602    1.170843
O     -0.751447   -2.046204    1.928877
O      4.227976   -1.564824    1.347527
O      4.692925    1.944614   -1.803155
O     -6.007653    0.806195   -0.763628
H     -2.730527   -2.022080    0.561379
H     -5.068683   -1.540327    0.105436
H     -4.070956    2.475878   -1.040531
H     -1.695090    2.031228   -0.579333
H      2.001905    2.044391   -1.723426
H      5.544791    0.122546   -0.228372
H      1.845830   -2.077739    1.937327
H     -0.211314   -2.608205    2.517804
H      5.201095   -1.531268    1.271994
H      4.199538    2.588553   -2.342119
H     -6.570459    0.034656   -0.582451
