58

C     -6.669852   -0.632206   -2.729605
C     -7.037384   -0.813335   -1.258606
C     -6.439324    0.243702   -0.336246
C     -4.967256    0.006379   -0.172107
C     -4.471125   -1.298166   -0.221457
C     -3.097381   -1.528489   -0.025976
C     -2.185849   -0.460915    0.207762
C     -2.714931    0.851383    0.257537
C     -4.091577    1.067866    0.079135
C     -1.865859    1.941954    0.492766
C     -0.490247    1.760509    0.658026
C      0.078919    0.480578    0.635825
C     -0.781812   -0.611763    0.407085
O     -0.207768   -1.867068    0.390455
C      1.531065    0.284617    0.828357
C      2.409935    0.352563   -0.274259
C      3.789722    0.139030   -0.115625
C      4.306951   -0.137434    1.144594
C      3.451069   -0.200086    2.251540
C      2.069830    0.012045    2.108592
C      1.189278   -0.086508    3.327143
C      5.753520   -0.368050    1.340640
O      6.192287   -0.601573    2.462593
C      6.657372   -0.307050    0.146347
C      6.135102   -0.036598   -1.057792
C      4.698496    0.201180   -1.269790
O      4.274896    0.443401   -2.396536
O      7.993474   -0.542139    0.406898
C      8.914414   -0.507317   -0.674967
O      1.866837    0.638022   -1.508838
O      0.304739    2.849346    0.925996
C      0.431429    3.685005   -0.224481
O     -2.576444   -2.809678   -0.050750
C     -5.402130   -2.430917   -0.456007
O     -5.012160   -3.583982   -0.305946
O     -6.673284   -2.140418   -0.826046
H     -6.984129    0.349867   -3.095790
H     -5.594178   -0.740271   -2.902458
H     -7.158625   -1.402272   -3.336335
H     -8.129325   -0.753602   -1.178966
H     -6.898054    0.169707    0.657577
H     -6.639605    1.246946   -0.729215
H     -4.488256    2.081761    0.133064
H     -2.271944    2.948605    0.560058
H     -0.925288   -2.505559    0.199662
H      3.863712   -0.421078    3.236496
H      0.576796    0.813175    3.436262
H      1.782573   -0.181266    4.242620
H      0.542419   -0.965817    3.258769
H      6.730586    0.023606   -1.960115
H      9.910182   -0.723900   -0.277199
H      8.942319    0.487160   -1.131678
H      8.674369   -1.273493   -1.419028
H      2.577540    0.603643   -2.185647
H      1.288501    4.346053   -0.064014
H     -0.459109    4.310355   -0.344034
H      0.616119    3.108345   -1.136765
H     -3.321556   -3.451766   -0.129519
