43

O     -6.091056    3.358823   -0.383973
C     -4.931456    2.642636   -0.351036
C     -3.741313    3.346582   -0.312865
C     -2.533922    2.645812   -0.277320
O     -1.371261    3.374530   -0.238380
C     -2.484445    1.222020   -0.279654
C     -1.299642    0.426074   -0.239289
O     -0.091879    1.101778   -0.192760
C      1.107845    0.409295   -0.143450
C      2.259280    1.092356   -0.104197
C      3.550589    0.401673   -0.044244
C      3.617673   -1.002952   -0.021923
C      2.363665   -1.795945   -0.062310
C      1.080866   -1.033334   -0.128742
C     -0.069958   -1.717287   -0.172169
O      2.414240   -3.023737   -0.042697
C      4.864063   -1.642661    0.037248
O      5.007107   -3.004559    0.062093
C      6.037197   -0.894996    0.073916
C      5.965469    0.492916    0.051553
O      7.138251    1.188012    0.088951
C      4.736854    1.148545   -0.006915
C     -1.338782   -0.985246   -0.243618
C     -2.580655   -1.639050   -0.305493
C     -2.724241   -3.141787   -0.310633
O     -2.582905   -3.676361    0.997537
C     -3.752923   -0.864592   -0.330249
C     -3.723685    0.538376   -0.321612
C     -4.933703    1.253735   -0.355606
H     -6.842905    2.743738   -0.406786
H     -3.769784    4.431285   -0.310456
H     -1.587712    4.320797   -0.245297
H      2.244958    2.177941   -0.114632
H     -0.072424   -2.801848   -0.149290
H      4.110352   -3.408517    0.032930
H      7.001370   -1.393482    0.119690
H      6.949272    2.140346    0.068017
H      4.697307    2.234099   -0.023472
H     -3.708239   -3.439601   -0.689368
H     -1.990168   -3.609717   -0.974190
H     -2.329659   -2.955270    1.598603
H     -4.715739   -1.376504   -0.357466
H     -5.877902    0.716080   -0.386652
