43
 xtb: 6.6.1 (8d0f1dd)
O     -5.964100    3.419300   -0.420800
C     -4.858000    2.652200   -0.378700
C     -3.624000    3.317600   -0.342100
C     -2.437300    2.622200   -0.294400
O     -1.253900    3.257000   -0.258700
C     -2.453700    1.196600   -0.281600
C     -1.276300    0.409300   -0.228900
O     -0.107500    1.059100   -0.186800
C      1.080200    0.393400   -0.137300
C      2.230600    1.112500   -0.093400
C      3.489000    0.450200   -0.039100
C      3.547100   -0.967500   -0.034200
C      2.349700   -1.760300   -0.082100
C      1.079100   -1.041200   -0.128300
C     -0.116400   -1.707400   -0.163300
O      2.362500   -3.018000   -0.088300
C      4.818500   -1.599200    0.018600
O      4.936500   -2.937300    0.027200
C      5.973000   -0.839800    0.063500
C      5.902600    0.553800    0.058300
O      7.067200    1.236200    0.103400
C      4.671900    1.188400    0.008000
C     -1.340100   -0.996000   -0.219100
C     -2.611900   -1.639700   -0.266800
C     -2.693900   -3.147300   -0.260400
O     -2.135900   -3.739400    0.897000
C     -3.743800   -0.885200   -0.311600
C     -3.709300    0.532700   -0.322900
C     -4.895300    1.272300   -0.369600
H     -6.769400    2.878800   -0.441900
H     -3.634800    4.396400   -0.352300
H     -1.374800    4.220500   -0.273600
H      2.189300    2.188700   -0.099200
H     -0.108400   -2.786400   -0.131700
H      4.017000   -3.318600   -0.010900
H      6.931600   -1.329500    0.102700
H      6.909100    2.193900    0.092100
H      4.613800    2.266000    0.004300
H     -3.739800   -3.455100   -0.378200
H     -2.122000   -3.554600   -1.099600
H     -2.651800   -3.475300    1.671000
H     -4.709500   -1.365900   -0.347500
H     -5.836800    0.746800   -0.398800
