59
 xtb: 6.6.1 (8d0f1dd)
C     -8.079600    1.710700   -0.603100
C     -6.636300    1.283600   -0.362000
C     -6.374000   -0.129400   -0.879800
C     -4.972400   -0.646600   -0.552200
C     -3.867500    0.122700   -1.274600
C     -2.491400   -0.530000   -1.138800
C     -1.973400   -0.514800    0.297300
C     -0.516700   -0.990300    0.410900
C      0.509400   -0.004000   -0.196000
C      1.417100    0.374100    0.987000
C      2.842000    0.532800    0.574200
C      3.338900    1.714600    0.159800
O      4.586900    1.890400   -0.300600
C      5.399100    0.811900   -0.410200
C      4.987600   -0.426000   -0.014900
C      3.689900   -0.633400    0.539800
C      3.259200   -1.846300    1.015300
C      2.024900   -2.028900    1.690700
O      1.644800   -3.123300    2.128000
C      1.170700   -0.779000    1.974900
O     -0.216300   -1.085400    1.786700
C      1.385900   -0.379800    3.432600
C      6.708200    1.076800   -0.962100
C      7.117400    2.284500   -1.362900
C      8.454900    2.567600   -1.933800
O     -0.286800   -2.223000   -0.259300
C     -0.926800   -3.364900    0.281800
H     -8.309400    1.689100   -1.666000
H     -8.766800    1.040300   -0.091600
H     -8.246700    2.720100   -0.235300
H     -6.421300    1.318800    0.708500
H     -5.968900    1.987600   -0.860700
H     -7.107300   -0.805800   -0.433600
H     -6.523100   -0.150100   -1.961900
H     -4.817200   -0.590200    0.526600
H     -4.912700   -1.698800   -0.842100
H     -3.814200    1.140900   -0.887200
H     -4.117600    0.179300   -2.336200
H     -1.783200    0.002100   -1.776400
H     -2.534200   -1.559900   -1.497400
H     -2.580100   -1.155200    0.937800
H     -2.014100    0.495300    0.707200
H      0.023600    0.864100   -0.630800
H      1.065000   -0.537000   -0.967100
H      1.047000    1.297000    1.442600
H      2.776100    2.635400    0.157200
H      5.655700   -1.265500   -0.106400
H      3.891300   -2.717800    0.925500
H      1.198400   -1.240000    4.070600
H      2.409900   -0.044300    3.570500
H      0.693200    0.414000    3.698700
H      7.357600    0.218100   -1.038900
H      6.445700    3.127600   -1.275500
H      8.348100    2.988100   -2.932700
H      8.965500    3.312600   -1.325400
H      9.062900    1.669100   -1.985900
H     -0.577200   -4.199800   -0.320500
H     -0.627400   -3.515300    1.322800
H     -2.014400   -3.284100    0.216000
