36

O     -1.100705    2.381785   -0.591288
C     -1.468114    1.246173   -0.367252
C     -2.871281    0.893341   -0.134908
C     -2.914359   -0.475461    0.128979
C     -4.138868   -1.057048    0.411720
C     -5.289930   -0.253989    0.412128
C     -5.214581    1.121531    0.135253
C     -3.985470    1.714905   -0.141790
N     -1.639604   -1.044660    0.059281
C     -1.487478   -2.485617    0.082768
C     -0.676979   -0.048481   -0.188628
C      0.674338   -0.041501   -0.203945
C      1.469628   -1.194692    0.405637
C      2.874587   -0.780820    0.359247
C      3.993162   -1.453013    0.821175
C      5.223498   -0.817903    0.671275
C      5.295795    0.453699    0.077814
C      4.140331    1.106875   -0.378381
C      2.914430    0.477858   -0.240130
N      1.635425    0.902316   -0.611378
C      1.475500    2.077770   -1.443714
O      1.104868   -2.240072    0.904563
H     -4.228192   -2.113031    0.642508
H     -6.256188   -0.702610    0.634774
H     -6.119325    1.725109    0.144066
H     -3.896154    2.775609   -0.349284
H     -2.363434   -2.997807   -0.331856
H     -1.343612   -2.843760    1.106746
H     -0.655892   -2.809214   -0.550531
H      3.906310   -2.429841    1.284198
H      6.131690   -1.304015    1.020314
H      6.263201    0.941480   -0.025540
H      4.227623    2.093704   -0.819849
H      2.341172    2.239633   -2.096376
H      1.347421    2.973868   -0.828816
H      0.631188    1.967879   -2.131015
