36

C      4.543337    1.455865   -1.511105
C      3.280046    0.836562   -0.980237
C      3.286977   -0.395028   -0.300278
C      4.561987   -1.103173   -0.094521
O      4.907591   -1.090329    1.204270
O      5.275791   -1.564650   -0.963528
C      2.091004   -0.966269    0.162220
O      2.153868   -2.191326    0.781317
C      0.866995   -0.299454   -0.033572
C      0.857589    0.922173   -0.700783
C     -0.407804    1.640923   -0.923783
C     -1.673193    1.059351   -0.439268
C     -1.693293   -0.168476    0.232993
C     -2.928137   -0.689843    0.680315
O     -2.911615   -1.891896    1.333916
C     -4.142246   -2.438771    1.788429
C     -4.104812    0.033461    0.441473
C     -4.060392    1.250842   -0.228325
O     -5.237781    1.906269   -0.430157
C     -2.857233    1.772856   -0.671996
C     -0.404116   -0.883262    0.452514
O     -0.335036   -1.962687    1.032288
O     -0.409882    2.718069   -1.508977
C      2.052861    1.484966   -1.176716
H      4.367870    2.476540   -1.867701
H      4.928562    0.869198   -2.350878
H      5.303699    1.515869   -0.725726
H      5.741331   -1.602177    1.236561
H      1.245506   -2.450938    1.063547
H     -4.614150   -1.785717    2.529726
H     -4.817020   -2.642166    0.950560
H     -3.923247   -3.392742    2.277691
H     -5.076886   -0.324901    0.765588
H     -5.067383    2.736853   -0.907141
H     -2.824761    2.725254   -1.195772
H      2.023973    2.438755   -1.704806
