36
 xtb: 6.6.1 (8d0f1dd)
C     -6.134100    0.594000   -0.678300
C     -4.638700    0.672500   -0.632900
O     -3.991300    1.637000   -1.002300
N     -4.049600   -0.448400   -0.113100
C     -2.717300   -0.657000    0.139700
C     -1.674200   -0.055300   -0.498400
C     -0.326300   -0.319600   -0.087900
N      0.675900    0.228400   -0.718400
C      1.936300   -0.030000   -0.288300
C      2.169800   -0.885300    0.813400
C      3.465700   -1.131400    1.255600
C      4.519100   -0.532500    0.601500
C      4.311100    0.318500   -0.494100
C      3.029600    0.567300   -0.933000
C      5.503700    0.935000   -1.186600
O      6.585200    1.195200   -0.322400
O      1.131200   -1.482400    1.446600
C     -0.123400   -1.236700    1.027000
C     -1.160100   -1.872700    1.638900
C     -2.504200   -1.642400    1.234800
O     -3.490600   -2.200000    1.737700
C     -1.845600    0.796800   -1.720400
O     -2.349100    0.368600   -2.739500
O     -1.279000    1.974900   -1.614600
H     -6.530800    1.521000   -1.080100
H     -6.431800   -0.235900   -1.314000
H     -6.531000    0.427500    0.319400
H     -4.633000   -1.129100    0.379000
H      3.617100   -1.786800    2.097300
H      5.532400   -0.710400    0.927100
H      2.827600    1.217700   -1.767900
H      5.888500    0.222300   -1.924100
H      5.197600    1.842300   -1.720000
H      6.344000    1.905100    0.288100
H     -0.975800   -2.566200    2.443800
H     -1.349000    2.497800   -2.437600
