43

O      6.051366    2.557635   -1.711568
C      5.131291    1.718927   -1.148996
C      5.420470    1.026651    0.027498
C      4.418739    0.187770    0.536367
C      3.172262    0.032339   -0.077947
C      2.924486    0.740464   -1.274394
C      3.911272    1.584628   -1.796069
C      2.417880   -0.883704    0.724183
C      1.066674   -1.404214    0.553826
C     -0.055114   -0.584423    0.417515
C      0.035003    0.871484    0.503283
O      0.465643    1.261788    1.715142
O     -0.270079    1.665929   -0.365238
C     -1.299386   -1.211634    0.186015
C     -1.317386   -2.608170    0.142871
C     -0.175461   -3.377573    0.311888
N      1.007663   -2.763787    0.516830
N     -2.614188   -3.000340   -0.079816
C     -3.446591   -1.912987   -0.171175
C     -4.828227   -1.861537   -0.380132
C     -5.426028   -0.599754   -0.431724
C     -4.678765    0.567521   -0.284584
O     -5.409186    1.723557   -0.365206
C     -4.680334    2.945068   -0.337058
C     -3.297296    0.488475   -0.068881
C     -2.657742   -0.773542   -0.011983
C      3.233046   -1.277111    1.768284
N      4.425426   -0.618581    1.651834
H      6.856965    2.539142   -1.170441
H      6.374927    1.122883    0.530739
H      1.976912    0.639768   -1.796803
H      3.720400    2.134475   -2.713687
H      0.536867    2.236634    1.650468
H     -0.169310   -4.460766    0.285675
H     -2.920904   -3.959501   -0.159068
H     -5.423540   -2.760825   -0.500392
H     -6.499337   -0.526802   -0.595236
H     -3.962879    2.998682   -1.162732
H     -5.395685    3.763254   -0.464808
H     -4.184933    3.084949    0.629317
H     -2.700362    1.383308    0.052409
H      3.057779   -1.970541    2.580421
H      5.207662   -0.719536    2.283377
