71
 xtb: 6.6.1 (8d0f1dd)
C     -0.307000   -2.721200   -4.223500
C     -1.476400   -2.056500   -3.585400
C     -2.709000   -1.972300   -4.137500
C     -3.791200   -1.315000   -3.456200
O     -4.943800   -1.249800   -3.941800
C     -3.450300   -0.731700   -2.171900
C     -4.407500   -0.046100   -1.404000
C     -4.034600    0.533100   -0.166100
C     -2.688800    0.417100    0.286800
C     -2.303500    1.047700    1.477500
C     -3.214600    1.747400    2.238600
C     -4.552600    1.841200    1.823700
C     -4.964200    1.254300    0.647300
O     -6.232300    1.319800    0.193800
C     -7.206900    2.022400    0.943000
O     -2.735900    2.316900    3.373100
C     -3.611800    3.063000    4.201300
C     -1.744200   -0.305100   -0.484100
C     -2.126700   -0.856800   -1.687100
O     -1.183900   -1.542800   -2.387100
C     -0.344700   -0.476200   -0.035000
C      0.693400    0.081800   -0.749500
C      2.043100   -0.100700   -0.337700
C      3.146400    0.479200   -1.023000
C      4.458400    0.267300   -0.559200
C      4.674700   -0.573300    0.568800
C      3.618400   -1.125200    1.235900
C      2.292600   -0.893000    0.814400
C      1.220200   -1.464300    1.519100
C     -0.078600   -1.271400    1.111500
O     -1.169000   -1.801800    1.705900
C     -0.993100   -2.603100    2.861500
O      5.925100   -0.854400    1.027200
C      7.023200   -0.603000    0.149600
C      6.897700    0.787600   -0.472800
C      5.573900    0.937200   -1.178500
O      5.474700    1.643000   -2.190000
C      8.278900   -0.734300    1.007100
O      7.000000   -1.524000   -0.903900
O      2.918300    1.250500   -2.078900
O      0.408000    0.789500   -1.898300
C     -0.011900    2.127600   -1.685400
O     -5.658500    0.068900   -1.843700
H      0.036700   -3.538800   -3.593500
H     -0.568300   -3.097100   -5.205500
H      0.508500   -2.004800   -4.302800
H     -2.913300   -2.401500   -5.103500
H     -1.281000    0.997200    1.812400
H     -5.259300    2.382200    2.427200
H     -7.341900    1.576500    1.931400
H     -6.945400    3.079100    1.038600
H     -8.124800    1.923500    0.368500
H     -4.028400    3.919400    3.665900
H     -2.992000    3.413800    5.023100
H     -4.416700    2.435900    4.591500
H      3.808100   -1.749700    2.092800
H      1.450700   -2.065900    2.382200
H     -0.394300   -3.488900    2.638000
H     -0.527900   -2.031200    3.667300
H     -1.996700   -2.901400    3.154600
H      7.706300    0.956000   -1.183000
H      6.948500    1.545000    0.312400
H      9.157500   -0.615100    0.381200
H      8.274300    0.024800    1.782300
H      8.293700   -1.712500    1.479800
H      7.188800   -2.415500   -0.572800
H      3.783300    1.581300   -2.438600
H     -0.905900    2.165900   -1.055800
H     -0.234400    2.524500   -2.672500
H      0.788700    2.714100   -1.225700
H     -5.720900   -0.390500   -2.729500
