71

C     -0.468925   -3.121384   -4.150956
C     -1.608002   -2.398609   -3.503899
C     -2.832881   -2.356032   -4.040367
C     -3.888782   -1.613810   -3.339405
O     -5.025455   -1.547749   -3.800037
C     -3.528716   -0.949946   -2.075631
C     -4.468326   -0.217393   -1.336898
C     -4.117498    0.429761   -0.115551
C     -2.769052    0.324444    0.328087
C     -2.408324    0.979267    1.533562
C     -3.315207    1.702348    2.311665
C     -4.630282    1.794660    1.893411
C     -5.021719    1.188518    0.690936
O     -6.349085    1.259995    0.330935
C     -6.812732    2.606937    0.183063
O     -2.787480    2.250797    3.448352
C     -3.649320    3.074673    4.225697
C     -1.816475   -0.423028   -0.435479
C     -2.220102   -1.059407   -1.627194
O     -1.267587   -1.785079   -2.312564
C     -0.400501   -0.562200    0.000791
C      0.623118    0.229575   -0.575630
C      2.004765    0.070729   -0.240198
C      3.104561    0.789896   -0.804977
C      4.430805    0.531226   -0.414710
C      4.695627   -0.442205    0.537651
C      3.642901   -1.133359    1.128527
C      2.310949   -0.900689    0.745781
C      1.292055   -1.659993    1.344353
C     -0.047219   -1.504450    0.983257
O     -1.073327   -2.249075    1.510608
C     -0.829010   -2.927929    2.736686
O      5.953588   -0.768341    0.966644
C      6.974663   -0.497144    0.002020
C      6.944893    0.959748   -0.439523
C      5.572128    1.300614   -0.950056
O      5.371689    2.233322   -1.727728
C      8.316886   -0.812665    0.660870
O      6.831537   -1.343286   -1.135666
O      2.849685    1.756235   -1.752077
O      0.249816    1.125984   -1.557185
C      0.043773    2.429809   -1.008560
O     -5.761000   -0.101308   -1.801332
H     -0.108232   -3.922074   -3.497113
H     -0.757545   -3.571318   -5.106555
H      0.360585   -2.430536   -4.338322
H     -3.098092   -2.839333   -4.971330
H     -1.383367    0.925221    1.898286
H     -5.378886    2.307631    2.488465
H     -7.210016    2.972609    1.141153
H     -6.031937    3.286320   -0.188943
H     -7.626828    2.602203   -0.547216
H     -3.997128    3.939607    3.647368
H     -3.070773    3.454409    5.075592
H     -4.492168    2.499336    4.626740
H      3.873981   -1.881338    1.885183
H      1.569886   -2.405092    2.083807
H     -0.170433   -3.788482    2.580901
H     -0.421469   -2.251120    3.495915
H     -1.786094   -3.306903    3.105323
H      7.660514    1.131584   -1.251311
H      7.160258    1.637797    0.394900
H      9.146853   -0.677033   -0.041755
H      8.484763   -0.186796    1.544100
H      8.345206   -1.856180    0.996510
H      7.016267   -2.250034   -0.836962
H      3.696578    2.169695   -2.031652
H     -1.020771    2.575457   -0.798415
H      0.342947    3.163047   -1.764661
H      0.626952    2.619133   -0.099645
H     -5.847486   -0.581265   -2.656166
