49
 xtb: 6.6.1 (8d0f1dd)
C      5.103600    1.157000   -1.105000
C      5.112400   -0.274300   -1.527900
C      4.151300   -1.176900   -1.351100
C      4.227300   -2.574300   -1.891600
C      2.868900   -0.872800   -0.654000
N      2.984300   -0.402500    0.596500
C      1.822000   -0.041600    1.380700
C      1.177800    1.262700    0.867900
C     -0.270700    1.351600    1.248900
C     -1.252000    0.614000    0.588900
C     -2.627800    0.736600    0.944400
C     -3.625000    0.008700    0.248000
C     -3.218000   -0.868700   -0.832800
C     -4.112700   -1.625400   -1.595900
C     -3.666100   -2.454400   -2.600900
C     -2.303800   -2.555500   -2.872000
C     -1.399100   -1.821400   -2.141700
C     -1.844000   -0.970900   -1.123800
N     -0.926600   -0.245700   -0.420800
C     -4.943600    0.181700    0.653800
C     -5.224100    1.047300    1.704300
N     -4.322500    1.735000    2.366600
C     -3.036700    1.592800    2.005100
C     -2.029000    2.313400    2.691800
C     -0.688900    2.172000    2.293100
S      0.316400    3.170900    3.301300
C     -1.131400    3.675500    4.147800
N     -2.224300    3.168000    3.734700
O      1.771000   -1.075100   -1.180800
H      4.133300    1.471800   -0.732100
H      5.856100    1.325100   -0.335200
H      5.368700    1.783600   -1.955100
H      6.001500   -0.578700   -2.066000
H      3.336500   -2.781100   -2.483100
H      5.109600   -2.705000   -2.510800
H      4.256100   -3.294400   -1.074400
H      3.902000   -0.213900    0.966400
H      1.096800   -0.857300    1.306000
H      2.118100    0.066500    2.422300
H      1.268500    1.293200   -0.220700
H      1.710200    2.122800    1.276000
H     -5.170200   -1.561000   -1.397500
H     -4.373700   -3.028600   -3.178100
H     -1.958700   -3.210200   -3.657200
H     -0.338500   -1.884300   -2.332200
H      0.051600   -0.402900   -0.667100
H     -5.753300   -0.339700    0.172800
H     -6.245300    1.194900    2.032100
H     -1.058100    4.371600    4.958300
