30
 xtb: 6.6.1 (8d0f1dd)
C     -2.615700    0.973200    0.870600
C     -1.643300    0.222000    1.787400
N     -0.591400   -0.350900    0.966000
C     -1.160000   -1.299000    0.000400
C     -0.157900   -2.134600   -0.811500
C      1.035000   -1.319900   -1.157400
C      2.058700   -1.423400   -2.086600
N      2.921300   -0.399700   -1.907400
C      2.494200    0.386200   -0.874100
C      1.316500   -0.182200   -0.401400
C      0.526900    0.346800    0.671200
C      1.014100    1.476000    1.289500
C      2.219800    2.117800    0.892100
O      2.642200    3.146100    1.445900
C      3.053800    1.559600   -0.282200
O      4.098800    2.108200   -0.626200
O     -1.986700   -0.591000   -0.897200
C     -3.082500    0.021900   -0.233700
H     -3.472400    1.337400    1.433900
H     -2.095500    1.822600    0.424500
H     -1.210600    0.883000    2.534400
H     -2.158200   -0.596000    2.298400
H     -1.789500   -1.983200    0.594600
H     -0.679000   -2.486900   -1.701700
H      0.148400   -3.000000   -0.220600
H      2.212000   -2.156800   -2.852200
H      3.755700   -0.226700   -2.448400
H      0.501900    1.958700    2.106800
H     -3.633000    0.553000   -1.010300
H     -3.723600   -0.761800    0.195400
