74
 xtb: 6.6.1 (8d0f1dd)
C      3.946600   -1.571600   -4.090900
C      2.837900   -1.829300   -3.078000
C      2.733100   -0.740000   -2.008200
C      3.849700   -0.793600   -0.960400
C      3.469300    0.044100    0.295300
C      2.311000   -0.573800    1.012000
C      0.981900   -0.112700    0.813200
C      0.663000    1.210900    0.343300
C      1.429400    2.355900    0.685100
C      1.182400    3.526100   -0.005800
C      0.170300    3.649100   -0.973400
C     -0.739200    2.586800   -1.111500
C     -1.884600    2.729100   -1.988500
C     -2.834400    1.651000   -2.036100
C     -2.694500    0.514100   -1.202000
C     -3.692600   -0.488500   -1.160300
C     -3.634500   -1.467800   -0.105400
C     -2.422500   -1.669400    0.590200
C     -1.342600   -0.767800    0.390400
C     -0.081700   -1.017400    1.002000
C      0.121600   -2.199100    1.749500
C      1.413500   -2.520000    2.201100
C      2.483200   -1.739900    1.731800
Br     4.218500   -2.408500    2.171600
O      1.686500   -3.562400    2.968100
C     -0.993300   -3.050800    2.091900
O     -0.846600   -4.036800    2.861100
C     -2.278300   -2.733400    1.514300
C     -3.397000   -3.511700    1.863500
C     -4.636400   -3.154300    1.323000
C     -4.786600   -2.161600    0.369000
O     -5.987700   -1.793500   -0.085600
Br    -6.172300   -4.109400    1.972300
O     -3.357700   -4.530100    2.705100
C     -1.516800    0.365000   -0.414800
C     -0.518600    1.381900   -0.409700
C     -4.665200   -0.476600   -2.207400
O     -5.421500   -1.515500   -2.559000
C     -4.798000    0.640200   -3.012100
C     -3.947000    1.735100   -2.906500
O     -4.184600    2.784700   -3.681100
O     -2.034500    3.774000   -2.679000
O      0.077100    4.787500   -1.639400
Br     2.205600    5.114400    0.302100
C      2.313900    2.375300    1.892900
C      1.573000    3.022500    3.092900
C      2.545100    3.207600    4.252800
O      0.520500    2.185700    3.538700
O      5.021700   -0.267800   -1.532100
H      3.753800   -0.649000   -4.633200
H      4.905200   -1.474700   -3.590900
H      4.002800   -2.388500   -4.806100
H      1.882400   -1.885200   -3.604400
H      3.003200   -2.793300   -2.590800
H      1.774900   -0.846000   -1.497000
H      2.764700    0.241900   -2.483100
H      4.011700   -1.840500   -0.662500
H      4.343600    0.088800    0.947600
H      3.242800    1.045500   -0.060400
H      0.845100   -4.044400    3.181600
H     -6.722700   -2.223400    0.384800
H     -2.421600   -4.661100    3.015500
H     -5.304200   -2.293500   -1.996200
H     -5.565200    0.645100   -3.768400
H     -3.472700    3.462900   -3.538300
H     -0.716600    4.747000   -2.239700
H      2.577400    1.371800    2.213200
H      3.221000    2.947700    1.703200
H      1.173800    4.001900    2.799600
H      3.346000    3.881200    3.967100
H      2.960100    2.246300    4.541600
H      2.014100    3.623000    5.104300
H     -0.271200    2.332400    3.009600
H      5.765400   -0.373700   -0.923900
