73
 xtb: 6.6.1 (8d0f1dd)
C     -6.735200    1.253300   -0.641600
C     -6.095600    0.005100   -0.050900
O     -4.694000    0.122400   -0.201100
C     -3.989600   -1.010600    0.260900
C     -4.225700   -1.221200    1.764700
C     -5.724000   -1.370600    2.024300
O     -6.037900   -1.408900    3.400900
C     -6.472400   -0.168500    1.430300
O     -7.865300   -0.344500    1.514000
C     -2.517800   -0.849700   -0.024600
C     -2.000400    0.380500   -0.306500
C     -0.613500    0.525200   -0.570200
C      0.319800    1.517100   -0.906000
O      1.560000    0.966900   -1.058400
C      1.464500   -0.372400   -0.832300
C      0.140800   -0.670400   -0.525600
C     -0.322800   -1.945600   -0.247100
C     -1.737800   -2.083900    0.031700
O     -2.244900   -3.195500    0.297100
C      0.623600   -2.984200   -0.276900
O      0.265900   -4.245500   -0.021200
C      1.977300   -2.689100   -0.579100
C      2.411300   -1.381800   -0.851200
C      3.840800   -1.139800   -1.299600
O      3.924900   -1.357300   -2.695800
C      4.252200    0.296700   -0.995200
O      4.472300    1.056100   -1.918500
C      4.404400    0.641100    0.443000
C      5.416900   -0.317600    1.135200
C      5.435600   -0.013600    2.635500
O      6.721500   -0.080400    0.653800
C      4.972900   -1.766400    0.895500
C      4.813400   -2.126400   -0.591600
O      6.084400   -2.042400   -1.205800
C      4.255800   -3.524400   -0.684100
C      2.948700   -3.765900   -0.643200
C      0.212300    2.933000   -1.110400
C     -0.976000    3.631000   -0.859100
C     -1.050200    4.989100   -1.067400
C      0.060100    5.695100   -1.535200
O      0.036400    7.019700   -1.758200
C      1.252600    5.007300   -1.783000
C      1.327500    3.652800   -1.573000
H     -7.810100    1.196300   -0.505600
H     -6.350200    2.132600   -0.133900
H     -6.498200    1.320400   -1.698700
H     -6.451500   -0.890100   -0.589200
H     -4.349900   -1.910700   -0.269700
H     -3.688300   -2.113600    2.086900
H     -3.850200   -0.354300    2.312000
H     -6.095800   -2.282300    1.528200
H     -5.603700   -2.168100    3.812800
H     -6.167100    0.731700    1.986300
H     -8.084700   -0.539200    2.437400
H     -2.684000    1.212300   -0.340600
H     -0.704600   -4.265200    0.159700
H      4.039300   -0.482700   -3.116600
H      3.442800    0.535800    0.943600
H      4.756800    1.669200    0.531400
H      5.763800    1.009900    2.789600
H      6.143100   -0.675700    3.125800
H      4.451200   -0.150000    3.069900
H      6.877700   -0.630700   -0.131800
H      4.023500   -1.946300    1.398300
H      5.725800   -2.435600    1.314400
H      5.972900   -2.200400   -2.156100
H      4.986600   -4.314400   -0.740200
H      2.557000   -4.770200   -0.654900
H     -1.838100    3.103800   -0.490000
H     -1.973700    5.510700   -0.866400
H     -0.835600    7.399900   -1.563200
H      2.103200    5.563900   -2.141900
H      2.249000    3.127400   -1.771100
