73

C     -6.836057   -1.513492   -1.447611
C     -6.143150   -1.335971   -0.101127
O     -4.787782   -0.936875   -0.357108
C     -4.010575   -0.832780    0.843793
C     -4.594904    0.281275    1.722260
C     -6.048214   -0.041171    2.050874
O     -6.647900    1.044635    2.764921
C     -6.854201   -0.287931    0.767627
O     -8.171594   -0.712920    1.122747
C     -2.572577   -0.637973    0.422750
C     -1.967826    0.565640    0.224877
C     -0.603037    0.645711   -0.173165
C      0.289396    1.657528   -0.453384
O      1.513810    1.084835   -0.763950
C      1.379595   -0.274838   -0.702103
C      0.088450   -0.555582   -0.339678
C     -0.370366   -1.848215   -0.181317
C     -1.784672   -1.943828    0.243144
O     -2.257650   -3.054405    0.461528
C      0.523021   -2.890600   -0.414254
O      0.120710   -4.193795   -0.263994
C      1.859095   -2.608796   -0.794692
C      2.336928   -1.262507   -0.942248
C      3.754745   -1.002872   -1.402645
O      3.709168   -0.993008   -2.853528
C      4.335237    0.350575   -0.974181
O      4.342495    1.307383   -1.758449
C      4.830264    0.495729    0.442056
C      5.808498   -0.624403    0.791377
C      6.187846   -0.528559    2.272515
O      7.020508   -0.438912    0.058037
C      5.207445   -2.003860    0.494205
C      4.733122   -2.139267   -0.965128
O      5.891139   -2.108196   -1.818146
C      4.119623   -3.507429   -1.130934
C      2.796921   -3.716034   -1.059871
C      0.255112    3.114385   -0.505829
C     -0.924806    3.801380   -0.829500
C     -0.954445    5.200349   -0.870441
C      0.202243    5.917509   -0.589460
O      0.220172    7.279879   -0.616048
C      1.384480    5.260954   -0.277194
C      1.411836    3.864337   -0.240834
H     -7.869603   -1.851312   -1.327460
H     -6.835023   -0.576570   -2.016584
H     -6.299052   -2.250253   -2.055281
H     -6.141909   -2.312074    0.403110
H     -4.094663   -1.774010    1.403307
H     -4.016289    0.405232    2.645714
H     -4.573409    1.249317    1.205397
H     -6.111634   -0.921823    2.701891
H     -6.186000    1.128005    3.618835
H     -6.954632    0.656551    0.216618
H     -8.490292   -0.046963    1.763003
H     -2.520221    1.489647    0.354280
H     -0.826918   -4.198672   -0.004068
H      3.641944   -0.045760   -3.103228
H      3.958794    0.494178    1.106095
H      5.321951    1.472309    0.526001
H      6.654155    0.438264    2.494473
H      6.925162   -1.295475    2.536368
H      5.316106   -0.649131    2.923901
H      6.988213   -0.979242   -0.760646
H      4.373677   -2.193154    1.183474
H      5.975092   -2.766106    0.689614
H      5.524879   -2.044323   -2.727979
H      4.787385   -4.350687   -1.288665
H      2.388857   -4.717971   -1.167700
H     -1.832031    3.259025   -1.080412
H     -1.879677    5.705406   -1.129519
H     -0.654280    7.600247   -0.891867
H      2.286378    5.829905   -0.069691
H      2.350941    3.367556   -0.004868
