49

C     -7.989801    0.312146    0.951420
C     -6.496982    0.181308    1.207925
C     -5.707867    0.116041   -0.099410
C     -4.206545   -0.012150    0.162985
C     -3.417238   -0.082758   -1.146511
C     -1.941999   -0.201391   -0.911957
C     -1.178861   -1.391959   -0.748613
Br    -1.902257   -3.131251   -0.785459
C      0.147271   -1.065217   -0.560107
N      0.210152    0.308050   -0.603589
C     -1.037803    0.847197   -0.804587
C     -1.222316    2.319234   -0.877812
C      1.329372   -1.829989   -0.350364
C      2.562231   -1.318644   -0.196373
C      3.777637   -2.076377    0.016477
O      3.708967   -3.438752    0.071468
C      4.938507   -4.123337    0.277164
C      4.828998   -1.258534    0.127757
C      4.191960    0.058973   -0.030562
C      4.940212    1.291559    0.015170
N      6.293968    1.376291    0.293054
C      6.716485    2.679676    0.265086
C      5.631196    3.467255   -0.035017
C      4.529760    2.598870   -0.188372
Br     2.818188    3.252354   -0.615670
N      2.901617    0.019022   -0.213766
H     -8.212698    1.223938    0.388117
H     -8.534693    0.356970    1.899557
H     -8.366719   -0.544088    0.382885
H     -6.158539    1.035941    1.805382
H     -6.311771   -0.722442    1.800233
H     -6.051455   -0.739662   -0.693426
H     -5.901474    1.019103   -0.691065
H     -3.863269    0.843752    0.757916
H     -4.014228   -0.909830    0.763802
H     -3.768680   -0.928474   -1.749389
H     -3.619319    0.813583   -1.746334
H      1.075450    0.829899   -0.494537
H     -0.644337    2.823454   -0.096271
H     -2.271917    2.596975   -0.743462
H     -0.890739    2.695139   -1.850974
H      1.210751   -2.910232   -0.315533
H      4.729254   -5.196848    0.292512
H      5.638688   -3.925996   -0.541340
H      5.381459   -3.850127    1.240581
H      5.864229   -1.479634    0.283453
H      6.897542    0.591874    0.497676
H      7.750252    2.933634    0.460949
H      5.637364    4.545454   -0.131532
