28
 xtb: 6.6.1 (8d0f1dd)
C     -4.322700    1.087300    0.866400
C     -3.044100    0.491400    0.382700
C     -1.821200    0.979200    0.855400
C     -0.618900    0.457000    0.415800
C     -0.596900   -0.591500   -0.529800
C     -1.830200   -1.086300   -1.007000
C     -3.030400   -0.533900   -0.540700
O     -1.916000   -2.073800   -1.897700
C      0.651400   -1.156100   -1.009800
O      0.682800   -2.079900   -1.837400
C      1.900300   -0.586100   -0.478600
C      3.118500   -1.095000   -0.922600
C      4.312100   -0.581100   -0.447800
C      4.302600    0.450900    0.479300
C      3.099000    0.963600    0.929600
C      1.890300    0.455200    0.459700
C      0.628000    1.024000    0.961900
O      0.616200    1.924500    1.794500
H     -5.173100    0.482600    0.568500
H     -4.308200    1.184000    1.949000
H     -4.440400    2.085600    0.448500
H     -1.793700    1.780000    1.579500
H     -3.947600   -0.944200   -0.933500
H     -1.005200   -2.375600   -2.142900
H      3.103000   -1.897900   -1.644600
H      5.248000   -0.984500   -0.800500
H      5.231100    0.854600    0.850600
H      3.065500    1.766000    1.651500
