28

C     -4.361412    1.078258    0.869300
C     -3.062797    0.488753    0.403081
C     -1.843910    0.990952    0.876956
C     -0.628392    0.461176    0.417624
C     -0.622990   -0.565804   -0.525286
C     -1.841961   -1.056963   -1.009274
C     -3.050845   -0.532081   -0.554127
O     -1.928587   -2.057839   -1.939999
C      0.657869   -1.119357   -1.005640
O      0.654020   -2.023386   -1.836757
C      1.927145   -0.580661   -0.482651
C      3.143889   -1.105718   -0.936297
C      4.348442   -0.599461   -0.445093
C      4.341157    0.428843    0.496996
C      3.129291    0.953090    0.949930
C      1.919316    0.446632    0.458523
C      0.641403    1.005533    0.941790
O      0.635446    1.910257    1.768303
H     -5.160820    0.330203    0.845845
H     -4.280032    1.433918    1.901800
H     -4.643120    1.917784    0.226410
H     -1.838935    1.798621    1.608741
H     -3.983669   -0.927118   -0.951977
H     -1.014737   -2.338938   -2.174221
H      3.159014   -1.908381   -1.671602
H      5.293261   -1.007639   -0.797768
H      5.279961    0.823474    0.879837
H      3.131993    1.755853    1.685556
