35

C     -4.152314   -0.457723    1.893796
C     -3.228423    0.477983    1.178998
C     -3.569907    1.736411    0.878644
C     -2.599590    2.581680    0.176291
O     -2.862666    3.742178   -0.122304
C     -1.299839    1.982504   -0.155234
C     -1.048454    0.655076    0.206996
O     -2.006165   -0.087349    0.867918
C      0.201727    0.026140   -0.093376
C      0.557390   -1.320557    0.232112
C      1.816860   -1.828353   -0.114764
C      2.752079   -1.041458   -0.781938
C      2.426619    0.270173   -1.107690
C      1.173333    0.810240   -0.774751
C      0.896621    2.140295   -1.127335
C     -0.326387    2.721161   -0.821392
O     -0.500354    4.022900   -1.206898
O      3.935911   -1.670394   -1.054626
C      4.929921   -0.914319   -1.735473
O     -0.388972   -2.069296    0.890491
C     -0.073154   -3.412160    1.231303
H     -5.113172    0.011285    2.129704
H     -3.699972   -0.790310    2.833644
H     -4.350399   -1.338808    1.274934
H     -4.528246    2.174065    1.124525
H      2.105433   -2.847028    0.123285
H      3.141997    0.900680   -1.628092
H      1.637734    2.743627   -1.648917
H     -1.401746    4.306468   -0.930519
H      4.582024   -0.608200   -2.727571
H      5.244017   -0.049953   -1.141155
H      5.803592   -1.558597   -1.873329
H      0.111539   -4.014281    0.335740
H     -0.941097   -3.838560    1.743549
H      0.774060   -3.455519    1.923434
