35
 xtb: 6.6.1 (8d0f1dd)
C     -4.019000   -0.548400    1.871900
C     -3.149800    0.431100    1.164300
C     -3.502900    1.702900    0.864800
C     -2.596300    2.579700    0.177800
O     -2.893700    3.760900   -0.110400
C     -1.309600    1.994000   -0.156600
C     -1.037000    0.671000    0.195000
O     -1.954100   -0.074500    0.842000
C      0.205800    0.063200   -0.111100
C      0.525600   -1.288100    0.230700
C      1.755900   -1.798900   -0.101800
C      2.714300   -1.016400   -0.775800
C      2.429300    0.284200   -1.116100
C      1.179700    0.840900   -0.791700
C      0.890600    2.175400   -1.141500
C     -0.313900    2.755000   -0.841800
O     -0.545400    4.031500   -1.195100
O      3.879800   -1.659100   -1.033400
C      4.909500   -0.957300   -1.707300
O     -0.428700   -1.995000    0.876000
C     -0.159000   -3.337900    1.239500
H     -4.975900   -0.102500    2.116100
H     -3.523500   -0.881700    2.781100
H     -4.168300   -1.421900    1.241100
H     -4.470800    2.090600    1.133600
H      2.039700   -2.809600    0.135500
H      3.141000    0.906000   -1.631600
H      1.630600    2.764800   -1.658500
H     -1.461100    4.271100   -0.891500
H      4.583800   -0.641400   -2.701000
H      5.234300   -0.088400   -1.130400
H      5.728300   -1.667200   -1.796500
H      0.034900   -3.953200    0.358100
H     -1.061800   -3.683500    1.737300
H      0.687500   -3.397100    1.927200
