35

C     -5.796067   -1.194985   -0.173726
C     -4.467542   -0.501876   -0.104957
C     -3.278439   -1.241284   -0.134868
C     -2.023839   -0.607808   -0.102695
C     -0.840437   -1.360372   -0.123639
C      0.411516   -0.732448   -0.091294
C      0.498315    0.655679   -0.038302
C     -0.680021    1.420456   -0.018192
C     -1.951261    0.803089   -0.050127
C     -3.156294    1.533203   -0.035374
C     -4.396395    0.891089   -0.067774
O     -0.643651    2.796166    0.032709
C      1.826059    1.300674   -0.004743
O      1.912589    2.527106    0.041909
C      3.051752    0.481392   -0.026870
C      2.954446   -0.908201   -0.080003
C      1.632560   -1.563157   -0.114205
O      1.549503   -2.784627   -0.161198
C      4.113972   -1.696336   -0.101459
C      5.370940   -1.091933   -0.069669
C      5.472437    0.297195   -0.016533
C      4.319055    1.078982    0.004722
O      4.508932    2.433455    0.057162
H     -5.753504   -2.169959    0.323083
H     -6.570554   -0.607700    0.330773
H     -6.087845   -1.341612   -1.218180
H     -3.334022   -2.328138   -0.182812
H     -0.891567   -2.448545   -0.164871
H     -3.132297    2.621422   -0.000885
H     -5.303881    1.490864   -0.062516
H      0.293511    3.089657    0.050881
H      4.042050   -2.782340   -0.142955
H      6.270756   -1.702926   -0.086292
H      6.450175    0.773008    0.008400
H      3.629047    2.870811    0.067347
