58
 xtb: 6.6.1 (8d0f1dd)
C     -3.978400   -5.242100   -0.488600
O     -3.840800   -3.836300   -0.613300
C     -2.631200   -3.275600   -0.424300
C     -1.479000   -3.982700   -0.115800
C     -0.284200   -3.304400    0.075700
O      0.770700   -4.095200    0.395900
C     -0.190000   -1.904300   -0.060900
C     -1.384200   -1.204300   -0.396100
C     -2.586500   -1.875600   -0.553400
C     -3.862100   -1.126200   -0.829800
C     -3.706800    0.335300   -0.430300
C     -2.408100    0.864200   -1.035600
C     -2.171100    2.314300   -0.694000
C     -2.439300    3.312300   -1.620700
C     -2.228700    4.641300   -1.296300
C     -1.740600    4.983100   -0.046300
C     -1.471400    3.991900    0.882500
C     -1.690500    2.663600    0.562000
O     -1.284700    0.131400   -0.540900
C      1.097000   -1.299400    0.157200
C      2.156900   -2.140900    0.504800
C      1.995400   -3.547400    0.623400
C      3.033800   -4.362200    0.956000
C      4.351900   -3.843400    1.209500
C      4.504100   -2.420200    1.091900
C      3.458700   -1.615200    0.755400
O      3.665900   -0.272000    0.663600
C      2.655800    0.545000    0.315700
C      3.035800    1.955100    0.236500
C      4.389600    2.302600    0.205000
C      4.771900    3.627600    0.127700
C      3.813300    4.628000    0.084400
C      2.468300    4.294100    0.121900
C      2.077300    2.971700    0.198100
C      1.396600    0.083200    0.054000
O      5.309800   -4.592300    1.515800
H     -3.715400   -5.575100    0.517500
H     -3.363200   -5.763700   -1.224500
H     -5.029800   -5.442200   -0.680000
H     -1.466400   -5.052800   -0.004700
H     -4.110600   -1.207400   -1.891300
H     -4.673200   -1.596500   -0.272800
H     -4.544800    0.931600   -0.786800
H     -3.649400    0.426600    0.655700
H     -2.440200    0.739500   -2.127400
H     -2.812700    3.048300   -2.598900
H     -2.440100    5.410400   -2.023200
H     -1.570700    6.019300    0.203800
H     -1.088600    4.251800    1.857900
H     -1.476300    1.889500    1.284200
H      2.883900   -5.427100    1.037700
H      5.478500   -1.998000    1.279600
H      5.134600    1.522700    0.233600
H      5.820600    3.880100    0.100400
H      4.114200    5.662200    0.024100
H      1.716600    5.067600    0.094100
H      1.026400    2.737700    0.244200
H      0.631700    0.770100   -0.246400
