55
 xtb: 6.6.1 (8d0f1dd)
C      6.472600    1.015800    0.032700
C      6.503100   -0.230000   -0.847800
C      5.641000   -1.354900   -0.285100
C      4.196500   -0.964500   -0.367900
C      3.796800   -0.214500   -1.504700
C      4.795400    0.205600   -2.477000
O      6.087600    0.107000   -2.186300
O      4.502600    0.662500   -3.587100
C      2.451500    0.113800   -1.695000
O      2.048500    0.784600   -2.787400
C      1.484500   -0.247900   -0.718000
C      1.910700   -0.974100    0.427900
C      0.988800   -1.345600    1.416300
C     -0.341000   -1.008700    1.302700
O     -1.296300   -1.288400    2.218800
C     -0.923300   -1.989600    3.393900
C     -0.782800   -0.291500    0.167900
C     -2.198800    0.109600    0.053900
C     -2.467800    1.536300    0.044200
C     -3.853700    1.955500   -0.148900
C     -4.882700    1.001900   -0.227200
C     -6.199500    1.404000   -0.400300
C     -6.511600    2.755000   -0.507400
C     -5.517700    3.701900   -0.433400
C     -4.177600    3.321500   -0.245900
O     -3.264900    4.287900   -0.168100
O     -1.557100    2.362700    0.213900
C     -3.182200   -0.836000   -0.025400
O     -2.777700   -2.114400   -0.031700
C     -3.675200   -3.214000   -0.085700
C     -4.606200   -0.441200   -0.123700
O     -5.516600   -1.262600   -0.137000
C      0.102400    0.079400   -0.830800
O     -0.419600    0.713600   -1.896900
C      3.273900   -1.327100    0.563800
H      5.448200    1.341600    0.198600
H      7.022900    1.820300   -0.447900
H      6.933200    0.793900    0.989700
H      7.536500   -0.561400   -0.985600
H      5.929600   -1.561500    0.743500
H      5.797000   -2.262000   -0.876100
H      2.822700    0.919700   -3.392000
H      1.355200   -1.891800    2.268800
H     -0.187900   -1.423900    3.970300
H     -0.529300   -2.978600    3.151000
H     -1.841000   -2.089800    3.968700
H     -6.967200    0.647600   -0.450700
H     -7.536400    3.059000   -0.646400
H     -5.731300    4.755900   -0.509200
H     -2.373300    3.881000   -0.017700
H     -3.027900   -4.088700   -0.089200
H     -4.282200   -3.192000   -0.992000
H     -4.333500   -3.233700    0.783700
H      0.287000    0.949100   -2.529500
H      3.574000   -1.898400    1.427500
