66

C     -7.727135    2.163148   -0.288897
C     -8.043309    0.792344    0.323740
C     -7.269237   -0.344032   -0.360827
C     -5.808003   -0.364625   -0.001225
C     -5.343143    0.154017    1.210984
C     -6.306078    0.764883    2.166639
O     -5.886475    1.207303    3.235828
C     -7.776196    0.772590    1.827392
C     -3.969832    0.096747    1.515490
C     -3.026109   -0.483585    0.623915
C     -3.517099   -1.018762   -0.588501
C     -4.891338   -0.959446   -0.880417
C     -2.633795   -1.619191   -1.498757
C     -1.264116   -1.680744   -1.233502
C     -0.720903   -1.142113   -0.060008
C     -1.623073   -0.571694    0.861202
O     -1.093215   -0.117960    2.051693
C      0.739593   -1.154815    0.187489
C      1.609522   -0.329797   -0.559430
C      3.027735   -0.332176   -0.384842
C      3.947396    0.472151   -1.114167
C      5.336038    0.411628   -0.882936
C      5.842373   -0.448838    0.096154
C      7.317328   -0.567877    0.369182
C      8.113061    0.682337   -0.034241
C      7.758871    1.099022   -1.460386
C      6.273387    1.253567   -1.674471
O      5.820965    2.019056   -2.526699
C      7.903126    1.833393    0.958089
O      9.512912    0.367298    0.011662
C      4.948893   -1.256271    0.813108
C      3.562517   -1.205613    0.588828
C      2.707948   -2.020417    1.342026
C      1.327523   -1.982066    1.153627
O      0.594111   -2.791936    1.983202
O      3.422689    1.319384   -2.073587
O      1.032784    0.520528   -1.484546
O     -0.438701   -2.306372   -2.131652
O     -3.481741    0.610177    2.703045
O     -9.445384    0.548678    0.140938
H     -8.351549    2.940575    0.165705
H     -7.957307    2.171952   -1.360714
H     -6.678855    2.449340   -0.163644
H     -7.706396   -1.311591   -0.078405
H     -7.394784   -0.264118   -1.449120
H     -8.240081    1.647285    2.300104
H     -8.232648   -0.111137    2.291108
H     -5.257017   -1.384128   -1.815974
H     -3.018429   -2.049204   -2.419795
H     -1.820671    0.319590    2.542658
H      7.694438   -1.439860   -0.182018
H      7.493544   -0.784222    1.431174
H      8.250329    2.049201   -1.703919
H      8.127814    0.363278   -2.185812
H      8.214576    1.536910    1.966535
H      6.861852    2.166181    1.006111
H      8.525070    2.694005    0.686650
H      9.691914   -0.372972   -0.597262
H      5.340404   -1.938891    1.569152
H      3.103545   -2.689445    2.101989
H     -0.311569   -2.435015    1.991287
H      4.169237    1.816269   -2.485768
H      1.765719    1.007587   -1.911686
H     -0.900819   -2.398777   -2.979233
H     -4.243311    0.971181    3.218813
H     -9.658899    0.656087   -0.802895
