48
 xtb: 6.6.1 (8d0f1dd)
C      5.424800    0.537500   -1.154500
C      4.239500    0.386700   -0.422300
C      4.314500    0.182500    0.959700
C      5.553400    0.127900    1.595500
C      6.714200    0.275500    0.863900
C      6.651800    0.486100   -0.536400
O      7.788200    0.632500   -1.254400
O      7.949100    0.231000    1.408000
O      3.219100    0.030500    1.741900
C      1.991900    0.070900    1.182000
C      1.805900    0.264600   -0.198400
C      2.943200    0.437600   -1.077000
O      2.820400    0.620200   -2.305500
C      0.484200    0.281800   -0.703100
C     -0.606400    0.137100    0.150300
C     -0.388800   -0.046400    1.524200
C      0.908000   -0.082700    2.027900
O     -1.388300   -0.199800    2.402000
C     -1.980800    0.109800   -0.474200
C     -2.376000   -1.334900   -0.851700
C     -3.764300   -1.312900   -1.512100
C     -4.768400   -0.610100   -0.590600
C     -4.229200    0.775000   -0.199900
O     -2.954900    0.658600    0.400900
C     -5.158000    1.486400    0.794800
O     -6.305800    2.001800    0.177900
O     -6.015300   -0.442600   -1.216200
O     -4.239000   -2.615700   -1.758600
O     -1.438500   -1.969200   -1.682200
O      0.260600    0.429600   -2.019400
H      5.361600    0.695100   -2.219100
H      5.575900   -0.032100    2.661300
H      8.555300    0.565700   -0.659000
H      7.913700    0.081000    2.365400
H      1.060300   -0.228800    3.083000
H     -2.242100    0.011100    1.977600
H     -1.948100    0.708800   -1.398900
H     -2.427500   -1.947200    0.057100
H     -3.702300   -0.754000   -2.461600
H     -4.879600   -1.222800    0.318300
H     -4.161300    1.391200   -1.110300
H     -4.624300    2.338300    1.221700
H     -5.424400    0.793200    1.603600
H     -6.727700    1.287800   -0.328800
H     -6.296900   -1.298600   -1.573400
H     -3.509700   -3.146900   -2.112500
H     -1.124900   -1.347000   -2.356600
H      1.147300    0.555900   -2.462800
