48

C      5.502636    0.370457   -1.152448
C      4.321530    0.307345   -0.410186
C      4.353734    0.215967    0.983833
C      5.579516    0.186735    1.655896
C      6.755092    0.249487    0.916349
C      6.712321    0.340335   -0.474980
O      7.874285    0.401087   -1.188331
O      7.985871    0.225273    1.510922
O      3.227690    0.150833    1.768501
C      2.001234    0.172476    1.151589
C      1.819363    0.261697   -0.223837
C      3.013617    0.336206   -1.075669
O      2.894243    0.421420   -2.293191
C      0.523990    0.269637   -0.769272
C     -0.616826    0.206901    0.050902
C     -0.397081    0.121402    1.435984
C      0.887738    0.096551    1.982874
O     -1.421692    0.063740    2.339087
C     -2.006263    0.197746   -0.581801
C     -2.390320   -1.216897   -1.093741
C     -3.853516   -1.236418   -1.552031
C     -4.785764   -0.657800   -0.493093
C     -4.296626    0.745986   -0.115672
O     -2.959382    0.664173    0.400699
C     -5.207182    1.382966    0.943995
O     -6.503028    1.669713    0.432210
O     -6.125474   -0.627085   -0.997323
O     -4.264891   -2.581276   -1.846510
O     -1.625128   -1.679678   -2.218764
O      0.322140    0.305520   -2.130595
H      5.483644    0.441755   -2.236250
H      5.596133    0.115960    2.738725
H      8.585638    0.365206   -0.517783
H      7.865622    0.160898    2.474615
H      1.010847    0.027317    3.060960
H     -2.230104    0.364584    1.874167
H     -2.011003    0.920366   -1.408462
H     -2.254418   -1.958115   -0.296171
H     -3.964943   -0.684741   -2.494410
H     -4.787704   -1.313155    0.386968
H     -4.310777    1.397019   -1.000400
H     -4.768897    2.320416    1.302656
H     -5.308433    0.729255    1.817466
H     -6.787104    0.883546   -0.083315
H     -6.256309   -1.506252   -1.413459
H     -3.532983   -2.954885   -2.380809
H     -0.855734   -1.085024   -2.336827
H      1.204697    0.411354   -2.565628
