70

C     -0.943749    1.053809   -1.990977
C     -0.429912    0.501519   -0.648872
C     -1.084042   -0.834080   -0.255541
C     -2.580332   -0.663356   -0.018332
C     -3.273074   -1.857392    0.672224
O     -4.686529   -1.545569    0.793957
C     -5.086425   -0.358569    1.313809
O     -6.254813   -0.126874    1.592918
C     -4.047895    0.682113    1.501389
C     -4.309928    1.807403    2.296674
C     -3.334105    2.809854    2.476801
C     -3.558753    3.941265    3.292256
C     -2.588719    4.931051    3.455327
C     -1.371141    4.811799    2.803059
C     -1.125561    3.703113    1.990646
C     -2.089384    2.684328    1.812302
C     -1.852738    1.555821    0.988251
C     -2.816256    0.550826    0.845544
O     -0.629962    1.495064    0.369172
O     -5.522241    1.975615    2.926773
C     -3.152286   -3.236464   -0.045780
C     -3.938898   -4.309844    0.725443
C     -3.653313   -3.186548   -1.496228
O     -1.782236   -3.652649   -0.054704
C      1.068446    0.344274   -0.756747
C      2.134568    1.174281   -0.470583
C      3.326027    0.487194   -0.844742
C      2.893338   -0.743054   -1.335114
O      1.532416   -0.819861   -1.291000
C      3.749774   -1.752143   -1.818918
C      3.233816   -2.979731   -2.279201
C      4.102073   -3.961639   -2.751432
C      5.475165   -3.723352   -2.768203
C      5.985896   -2.500296   -2.315293
C      5.135515   -1.484798   -1.827436
C      5.597049   -0.233014   -1.360463
C      4.714211    0.754864   -0.852672
C      5.274909    2.035429   -0.371936
O      6.380939    2.422268   -0.730594
O      4.461360    2.649841    0.518132
C      4.960181    3.882865    1.043132
O      6.959504   -0.015935   -1.419611
H     -0.423363    1.983812   -2.255101
H     -0.789482    0.337287   -2.805708
H     -2.007524    1.309938   -1.954601
H     -0.612718   -1.211644    0.663715
H     -0.912887   -1.578364   -1.041530
H     -3.083585   -0.464639   -0.974353
H     -2.873821   -1.971991    1.689422
H     -4.509234    4.056853    3.811041
H     -2.790825    5.791314    4.089354
H     -0.610063    5.578859    2.921314
H     -0.161389    3.635119    1.489508
H     -6.157359    1.303766    2.591095
H     -3.782470   -5.302289    0.282650
H     -3.589537   -4.378128    1.762378
H     -5.014912   -4.108718    0.731439
H     -3.030657   -2.527250   -2.110843
H     -4.693991   -2.844816   -1.552213
H     -3.594711   -4.176549   -1.963896
H     -1.726855   -4.515802   -0.503897
H      2.047826    2.167297   -0.051935
H      2.162687   -3.169537   -2.267013
H      3.709488   -4.911667   -3.104100
H      6.154774   -4.490631   -3.133630
H      7.063398   -2.341463   -2.339053
H      4.512812    4.034695    2.030905
H      6.052131    3.884774    1.155892
H      4.647304    4.700894    0.383739
H      7.142071    0.939455   -1.258010
