31
 xtb: 6.6.1 (8d0f1dd)
C      4.700400    0.754200    0.433500
C      3.350300    0.157600    0.233900
C      3.164300   -1.166200   -0.059000
C      1.882700   -1.716600   -0.245000
C      0.749100   -0.896000   -0.129800
C      0.922800    0.481900    0.174400
C      2.213200    1.003400    0.354000
O      2.449600    2.281400    0.638200
C     -0.224500    1.362900    0.302600
O     -0.101900    2.569800    0.568800
C     -1.560700    0.782200    0.106500
C     -1.719600   -0.584900   -0.194800
C     -0.573700   -1.459200   -0.321300
O     -0.723100   -2.679700   -0.591400
C     -3.032000   -1.082600   -0.370000
C     -4.126100   -0.226700   -0.243800
C     -3.952300    1.116100    0.052100
C     -2.656200    1.615200    0.226900
O     -4.975600    1.970500    0.181600
O     -3.288900   -2.359900   -0.655800
O      1.825300   -3.018500   -0.526100
H      4.761100    1.198600    1.425300
H      4.854500    1.558500   -0.283300
H      5.477100    0.006300    0.318200
H      4.004900   -1.834900   -0.157400
H      1.587400    2.769200    0.696000
H     -5.107600   -0.651800   -0.385000
H     -2.511700    2.658600    0.458000
H     -5.832200    1.532200    0.046400
H     -2.433200   -2.855500   -0.716400
H      0.876500   -3.286100   -0.632400
