31
 xtb: 6.6.1 (8d0f1dd)
C     -1.857500    2.259200   -1.137800
O     -2.536500    1.111800   -0.655500
C     -1.907300    0.027400   -0.206600
C     -0.561000   -0.046000    0.203200
C      0.019300   -1.325900    0.371000
C     -0.736100   -2.475400    0.293500
C     -2.114200   -2.411600    0.053900
C     -2.699400   -1.158000   -0.226700
C     -4.107500   -1.079200   -0.544200
O     -4.867900   -2.039500   -0.572000
O     -2.807000   -3.535500    0.065800
C      1.475400   -1.491200    0.624200
O      1.965900   -2.596700    0.802100
C      2.287200   -0.268800    0.606700
C      3.678200   -0.358500    0.616900
C      4.452300    0.787700    0.626600
C      3.844700    2.035300    0.646600
C      2.463800    2.136300    0.655700
C      1.675500    0.990700    0.624100
C      0.206300    1.120900    0.649700
O     -0.329300    2.130500    1.100300
H     -0.938200    1.979600   -1.656400
H     -1.612700    2.944500   -0.322400
H     -2.556500    2.730000   -1.826200
H     -0.266900   -3.435000    0.444200
H     -4.485400   -0.072300   -0.759900
H     -3.759300   -3.356600   -0.145800
H      4.125800   -1.340800    0.618100
H      5.527800    0.709400    0.627200
H      4.446800    2.929900    0.661700
H      1.973700    3.097700    0.684000
