41
 xtb: 6.6.1 (8d0f1dd)
C      0.719100    4.706800    0.855700
O      0.865500    3.301300    0.771200
C     -0.215700    2.559800    0.391600
C     -1.465800    3.057700    0.057200
C     -2.470400    2.201000   -0.359900
C     -2.284000    0.827700   -0.420300
C     -3.393600   -0.064900   -0.906700
O     -4.205600    0.638300   -1.820700
C     -1.048800    0.320800   -0.027000
C     -0.007800    1.173400    0.334300
N      1.250600    0.637500    0.573300
C      1.585300   -0.541600   -0.018700
C      2.915900   -0.914700   -0.301400
C      4.036100   -0.055800    0.090700
O      5.228200   -0.527900   -0.255400
O      3.928200    1.012500    0.679800
C      3.161600   -2.110300   -0.987800
C      2.124900   -2.903500   -1.421000
C      0.809800   -2.557600   -1.120700
C      0.544600   -1.424000   -0.382600
N     -0.765300   -1.076900    0.052800
C     -1.518700   -1.850500    0.864700
C     -1.109900   -3.300400    1.086200
O     -1.823900   -3.830900    2.171300
O     -2.522900   -1.432500    1.437100
H      1.693500    5.073800    1.169400
H     -0.034900    4.979200    1.597800
H      0.458100    5.134000   -0.115400
H     -1.664300    4.115200    0.097900
H     -3.426000    2.600000   -0.657100
H     -2.959300   -0.955100   -1.385400
H     -3.980900   -0.401200   -0.039800
H     -4.958800    0.084700   -2.064500
H      2.002900    1.284000    0.794400
H      5.947800    0.068700    0.027200
H      4.184000   -2.385900   -1.187400
H      2.324200   -3.802200   -1.979600
H     -0.001200   -3.182500   -1.455000
H     -0.038100   -3.375100    1.294200
H     -1.343500   -3.884900    0.186900
H     -2.540700   -3.198300    2.372500
