41

C      0.695353    4.742553    0.911808
O      0.883898    3.343532    0.746419
C     -0.222465    2.596194    0.424601
C     -1.504672    3.097904    0.246429
C     -2.532135    2.240637   -0.148170
C     -2.322021    0.857163   -0.336323
C     -3.465890    0.062043   -0.919675
O     -4.071898    0.786505   -1.993194
C     -1.052000    0.314336   -0.039402
C      0.005863    1.215093    0.258509
N      1.318255    0.715475    0.345924
C      1.657511   -0.562184   -0.110159
C      2.987971   -0.945417   -0.375024
C      4.104168   -0.003422   -0.092368
O      5.311280   -0.508632   -0.408944
O      4.004674    1.116223    0.376546
C      3.251499   -2.209300   -0.923792
C      2.204769   -3.075591   -1.229161
C      0.889066   -2.704650   -0.952423
C      0.600474   -1.472009   -0.348415
N     -0.753326   -1.110728    0.003369
C     -1.631355   -1.989026    0.663404
C     -1.084416   -3.328309    1.190265
O     -1.906798   -3.851804    2.234186
O     -2.807189   -1.735359    0.959685
H      1.665259    5.182933    1.162367
H      0.010559    4.953622    1.739734
H      0.349461    5.207096   -0.017451
H     -1.735948    4.150955    0.361029
H     -3.515768    2.664340   -0.351200
H     -3.125725   -0.884370   -1.347791
H     -4.232576   -0.112680   -0.158880
H     -4.808889    0.236040   -2.306090
H      2.053617    1.391808    0.554800
H      5.935193    0.209851   -0.171790
H      4.270976   -2.519095   -1.144026
H      2.414323   -4.037117   -1.693184
H      0.095073   -3.378582   -1.260974
H     -0.079360   -3.213307    1.601053
H     -1.096554   -4.066751    0.386886
H     -2.760256   -3.375968    2.161422
