57
 xtb: 6.6.1 (8d0f1dd)
C      6.221400    0.550200    2.222500
C      6.287200    1.213700    0.851600
C      5.821400    0.279400   -0.266700
C      4.331200    0.082600   -0.149600
C      3.563200    1.197900    0.206100
C      2.155900    1.114700    0.215400
C      1.550000   -0.111000   -0.123700
C      2.339900   -1.239900   -0.347000
C      3.723600   -1.130700   -0.395900
C      1.654200   -2.559000   -0.508600
C      0.474500   -2.642100    0.464000
C     -0.458400   -1.478000    0.191000
C      0.096500   -0.264800   -0.172900
C     -0.752900    0.750200   -0.688800
C     -2.141800    0.628900   -0.511300
C     -2.690900   -0.527600    0.107900
C     -1.856500   -1.641800    0.303400
O     -2.249900   -2.901400    0.575800
C     -3.513600   -3.394800    0.170500
C     -4.047500   -0.470300    0.640400
O     -4.423600   -1.246900    1.537900
C     -4.932300    0.574600    0.138100
C     -4.443600    1.594000   -0.697100
C     -3.009300    1.695400   -0.986400
O     -2.569800    2.663800   -1.628500
C     -5.301300    2.556000   -1.212800
C     -6.655200    2.516600   -0.912100
C     -7.149100    1.542800   -0.072700
C     -6.300600    0.574400    0.479600
O     -6.841000   -0.323200    1.306800
O     -0.198300    1.750600   -1.355600
O      0.989100   -2.617300    1.782800
O      1.390500    2.133200    0.608300
C      4.230400    2.438900    0.601800
O      3.629400    3.504100    0.736100
O      5.529600    2.433300    0.861000
O      6.165600    0.887900   -1.498600
H      6.923900   -0.275300    2.263500
H      5.218300    0.177500    2.416900
H      6.481300    1.277400    2.986200
H      7.304000    1.552500    0.630400
H      6.345100   -0.679900   -0.160900
H      4.322700   -2.001000   -0.611000
H      1.279200   -2.671000   -1.527500
H      2.349400   -3.368800   -0.294000
H     -0.071600   -3.579200    0.297100
H     -3.860600   -2.892100   -0.734700
H     -4.255700   -3.260500    0.961200
H     -3.361500   -4.456100   -0.017800
H     -4.887800    3.328900   -1.841800
H     -7.319500    3.259100   -1.323800
H     -8.192700    1.503200    0.195000
H     -6.122700   -0.901900    1.665500
H     -0.909200    2.384300   -1.644900
H      0.271500   -2.769500    2.410700
H      1.951200    2.931800    0.747400
H      5.916700    0.306000   -2.230300
