65

C      8.233731    0.177544   -0.865125
C      6.898603   -0.005429   -0.213343
C      6.768340   -0.355295    1.073545
C      5.421235   -0.515736    1.639835
O      5.255650   -0.835247    2.811848
C      4.281861   -0.277527    0.741243
C      4.556451    0.078253   -0.569743
O      5.828999    0.219969   -1.064341
C      3.509606    0.308209   -1.457198
C      2.170742    0.185543   -1.049581
C      1.153081    0.406990   -1.993237
C     -0.196785    0.276099   -1.660749
C     -0.560145   -0.063360   -0.344524
C      0.465166   -0.260408    0.613458
C      1.854372   -0.166461    0.287559
C      2.951019   -0.399414    1.174375
O      2.686961   -0.746134    2.479978
O      0.076979   -0.644023    1.881401
C     -0.016212    0.482110    2.756046
C     -1.991479   -0.239432    0.020556
C     -2.526112   -1.545158    0.052308
C     -3.854950   -1.754080    0.394198
C     -4.679177   -0.666908    0.705222
C     -4.189942    0.664296    0.681659
C     -2.829060    0.880297    0.332968
C     -2.346599    2.218218    0.314162
C     -3.154468    3.313916    0.623056
C     -4.480076    3.094152    0.962331
C     -4.984932    1.798089    0.990048
O     -6.309125    1.692509    1.339019
O     -2.767077    4.625138    0.629809
C     -1.419837    4.905768    0.273440
O     -6.005660   -0.859922    1.047345
C     -4.362011   -3.133021    0.420490
O     -5.530801   -3.373431    0.705851
C     -3.417066   -4.207549    0.095233
C     -2.157888   -3.884565   -0.224401
O     -1.682875   -2.586949   -0.272679
C     -1.123658   -4.911182   -0.564852
O     -1.232752    0.457759   -2.543001
C     -0.917023    0.773235   -3.891845
H      8.339703   -0.512094   -1.708692
H      9.060311   -0.008989   -0.171707
H      8.333431    1.201025   -1.240573
H      7.607069   -0.530968    1.734814
H      3.751039    0.579959   -2.483774
H      1.441021    0.671742   -3.006933
H      3.532593   -0.907091    2.954370
H      0.238225    0.146364    3.765839
H      0.659584    1.301875    2.486017
H     -1.046520    0.847717    2.774843
H     -1.308363    2.389540    0.048940
H     -5.128611    3.930712    1.207069
H     -6.528149    0.737339    1.319407
H     -0.720860    4.448551    0.981664
H     -1.280139    5.990000    0.321736
H     -1.208245    4.588550   -0.753124
H     -6.193547   -1.828675    1.018239
H     -3.785300   -5.224246    0.131015
H     -0.282110   -4.844787    0.132244
H     -0.746164   -4.744951   -1.578936
H     -1.522058   -5.929850   -0.516149
H     -1.858129    0.865657   -4.442367
H     -0.396321    1.733916   -3.960009
H     -0.335545   -0.028160   -4.359211
