35

C     -5.849963   -0.491311    0.064532
C     -4.463871    0.081540    0.091862
C     -3.346042   -0.760883    0.041581
C     -2.039806   -0.241079    0.034908
C     -0.928386   -1.096006   -0.006095
C      0.374034   -0.580419   -0.012421
C      0.584439    0.794989    0.021365
C     -0.520764    1.661269    0.061253
C     -1.841657    1.158521    0.068366
C     -2.976410    1.992828    0.103995
C     -4.268826    1.463019    0.110188
O     -0.359837    3.028736    0.094333
C      1.964295    1.321797    0.014162
O      2.149046    2.535249    0.043707
C      3.107282    0.390016   -0.028351
C      2.893126   -0.986924   -0.062137
C      1.516367   -1.514171   -0.055277
O      1.335135   -2.728119   -0.085404
C      3.994671   -1.852148   -0.102289
C      5.292967   -1.346545   -0.108531
C      5.503376    0.031139   -0.074660
C      4.412945    0.900886   -0.034575
O      3.874575   -3.215288   -0.137168
H     -6.180526   -0.621560   -0.970496
H     -5.881152   -1.461333    0.571773
H     -6.556010    0.167392    0.581114
H     -3.499314   -1.838809    0.008367
H     -1.077435   -2.175387   -0.032669
H     -2.854871    3.074913    0.124526
H     -5.119140    2.141140    0.130566
H      0.602317    3.234367    0.085530
H      6.139566   -2.028610   -0.139839
H      6.516914    0.426182   -0.079525
H      4.586462    1.975640   -0.008303
H      2.916493   -3.441030   -0.128609
