35
 xtb: 6.6.1 (8d0f1dd)
C      5.047200   -0.402400    1.115400
O      4.890200    0.448700   -0.001700
C      3.614600    0.706200   -0.453400
C      3.552300    1.548800   -1.578300
C      2.312400    1.860300   -2.116700
C      1.158000    1.357500   -1.559200
C      1.199600    0.522200   -0.429600
C      2.461400    0.205300    0.108000
C     -0.025800    0.018500    0.123000
O     -1.131900    0.316200   -0.656900
C     -2.377100   -0.081300   -0.305500
C     -3.416400    0.248500   -1.160500
C     -4.711800   -0.144700   -0.839200
C     -4.959500   -0.856600    0.332400
C     -3.922800   -1.183600    1.188000
C     -2.601800   -0.801200    0.879800
C     -1.483300   -1.100600    1.700800
C     -0.217500   -0.695000    1.317000
O      0.854000   -0.976400    2.106400
O     -4.122700   -1.874600    2.340100
O     -5.770900    0.140100   -1.635400
O      4.685500    2.054900   -2.139100
H      6.120400   -0.455300    1.285000
H      4.551300    0.010400    1.997200
H      4.655200   -1.400700    0.906200
H      2.277900    2.505500   -2.980000
H      0.204700    1.614500   -1.989600
H      2.517700   -0.441300    0.963300
H     -3.200000    0.801500   -2.060100
H     -5.975800   -1.143900    0.550700
H     -1.642700   -1.642400    2.618200
H      0.556100   -1.441800    2.904800
H     -5.063200   -2.080700    2.450400
H     -5.486700    0.630100   -2.421800
H      5.451300    1.733600   -1.635600
