56
 xtb: 6.6.1 (8d0f1dd)
C     -8.957700    1.173000   -0.880000
C     -7.722000    1.305300    0.002400
C     -6.535100    0.525700   -0.560100
C     -5.295700    0.661700    0.322000
C     -4.114400   -0.185300   -0.152000
C     -3.511500    0.300300   -1.469000
C     -2.291600   -0.525600   -1.868200
C     -1.072000   -0.229500   -1.026100
O     -1.041100    0.702600   -0.224900
C      0.068700   -1.098400   -1.217200
C      1.304800   -0.975900   -0.589600
C      1.845900   -0.020100    0.251500
C      3.224600    0.024300    0.427600
C      3.860000    0.919200    1.324500
C      5.223800    0.957500    1.442000
O      6.008400    0.154500    0.688600
C      5.442000   -0.668700   -0.195300
C      4.108900   -0.800200   -0.360500
C      3.549100   -1.694300   -1.445300
C      2.146100   -2.150700   -1.008300
O      1.418200   -2.746400   -2.087900
C      0.172700   -2.197300   -2.155700
O     -0.634700   -2.634000   -2.957000
C      2.257500   -3.170500    0.131700
O      3.532100   -0.935100   -2.632900
C      5.915700    1.829600    2.357200
C      7.248300    1.873600    2.481800
C      7.968800    2.766700    3.415000
H     -9.255600    0.130000   -0.962100
H     -9.788000    1.737000   -0.462600
H     -8.752800    1.549400   -1.879800
H     -7.950800    0.938600    1.005700
H     -7.448500    2.359100    0.090000
H     -6.315400    0.891900   -1.564200
H     -6.803100   -0.530400   -0.642300
H     -4.989500    1.709300    0.361400
H     -5.555400    0.355800    1.338400
H     -4.433700   -1.224900   -0.263700
H     -3.333400   -0.155200    0.611400
H     -4.253600    0.235700   -2.264900
H     -3.208000    1.343800   -1.359900
H     -2.507700   -1.594300   -1.811600
H     -2.014500   -0.326200   -2.907200
H      1.204900    0.721300    0.698500
H      3.252200    1.572600    1.926900
H      6.172400   -1.224900   -0.763500
H      4.189200   -2.578500   -1.575800
H      2.760500   -4.061500   -0.233800
H      1.261500   -3.443900    0.471100
H      2.813900   -2.744200    0.959900
H      3.181500   -1.479000   -3.352000
H      5.283400    2.467800    2.955100
H      7.860100    1.223700    1.870800
H      7.282800    3.383300    3.988000
H      8.577100    2.173800    4.096500
H      8.650500    3.407700    2.857700
