37

O     -7.221443   -0.807699    0.624003
C     -6.007033   -0.662941    0.530878
C     -5.362422    0.595663    0.996035
O     -6.173944    1.576411    1.533421
C     -4.036377    0.761764    0.892587
C     -5.129897   -1.705418   -0.034919
C     -3.806095   -1.511323   -0.126345
C     -3.153259   -0.268771    0.321989
C     -1.811532   -0.086905    0.214827
C     -0.836193   -1.048351   -0.335394
C      0.449493   -0.335490   -0.220237
O      0.301815    0.921879    0.369791
C     -1.032689    1.116333    0.625884
O     -1.462305    2.147217    1.111368
C      1.647504   -0.813428   -0.606805
C      1.714939   -2.153126   -1.219923
O      1.299314   -2.109740   -2.497430
O      2.129755   -3.166078   -0.690331
C      2.900623   -0.063589   -0.388269
C      3.091936    1.205933   -0.961641
C      4.285838    1.886337   -0.742032
O      4.521865    3.125029   -1.271905
C      5.290693    1.315717    0.033720
O      6.458534    1.990391    0.242400
C      5.123606    0.062571    0.600670
C      3.928163   -0.628406    0.388291
O     -1.022541   -2.165570   -0.766516
H     -7.081471    1.205703    1.493858
H     -3.638599    1.703142    1.254746
H     -5.609082   -2.619051   -0.364635
H     -3.224629   -2.322461   -0.551410
H      1.343568   -3.044815   -2.789676
H      2.315014    1.649625   -1.577017
H      3.733143    3.406121   -1.766737
H      6.349224    2.831337   -0.244674
H      5.915573   -0.374555    1.201689
H      3.808908   -1.613455    0.838341
