37
 xtb: 6.6.1 (8d0f1dd)
O     -7.244500   -0.915800    0.572200
C     -6.033200   -0.749500    0.467300
C     -5.477300    0.619600    0.669800
O     -6.354100    1.567300    0.952500
C     -4.141800    0.859700    0.563800
C     -5.075900   -1.797400    0.155000
C     -3.763800   -1.529500    0.056200
C     -3.237500   -0.190200    0.255300
C     -1.874000    0.026200    0.138500
C     -0.829500   -0.943000   -0.178700
C      0.413900   -0.182400   -0.164200
O      0.147100    1.142400    0.121200
C     -1.185900    1.312800    0.312100
O     -1.627800    2.406700    0.578300
C      1.644300   -0.715100   -0.377300
C      1.644000   -2.208100   -0.618300
O      1.536500   -2.497600   -1.895000
O      1.801500   -3.021000    0.261700
C      2.918300   -0.047800   -0.382700
C      3.019600    1.348500   -0.252900
C      4.247100    1.969800   -0.271000
O      4.413800    3.313300   -0.156300
C      5.428500    1.207800   -0.416600
O      6.629200    1.799100   -0.435100
C      5.328900   -0.175500   -0.541300
C      4.099500   -0.793200   -0.528100
O     -0.912900   -2.146400   -0.422500
H     -7.258200    1.181500    0.979900
H     -3.765900    1.858800    0.714900
H     -5.470100   -2.791100    0.008500
H     -3.052900   -2.308100   -0.175600
H      1.530500   -3.460800   -2.071700
H      2.125700    1.939200   -0.143200
H      3.563400    3.765600   -0.058600
H      6.527400    2.764000   -0.339300
H      6.237700   -0.743900   -0.647700
H      4.048400   -1.866200   -0.612700
