47

C     -4.292487   -0.457801   -1.113473
C     -3.365082   -0.426117    0.099117
C     -2.633788    0.903031    0.413628
C     -1.361452    0.730508   -0.429580
C     -1.137487   -0.746804   -0.297457
C      0.066116   -1.361062   -0.263854
C      0.251117   -2.821118   -0.183931
C      1.478800   -3.350661   -0.313836
C      2.679326   -2.521247   -0.514288
O      3.770944   -3.047511   -0.709860
C      2.546772   -1.051137   -0.435585
C      1.267998   -0.474440   -0.304317
C      1.182365    0.923166   -0.159789
C      2.338317    1.722666   -0.154561
C      3.594378    1.131884   -0.305949
C      3.703135   -0.251807   -0.456213
O      4.961981   -0.781958   -0.598305
O      4.713400    1.923114   -0.380291
C      5.300115    2.069900    0.911225
O      2.290723    3.086440   -0.001464
C     -0.148366    1.556148   -0.027211
O     -0.227156    2.747918    0.275250
C     -0.911985   -3.758244    0.015409
O     -2.337205   -1.421333   -0.103348
O     -1.595178    1.019048   -1.810656
C     -3.463780    2.148939    0.078120
C     -2.320822    0.936046    1.933283
H     -3.770845   -0.209170   -2.041672
H     -4.688471   -1.470516   -1.251387
H     -5.140686    0.221337   -0.989438
H     -3.955188   -0.750555    0.965393
H      1.658201   -4.420455   -0.287724
H      4.887071   -1.753481   -0.730416
H      4.604533    2.542018    1.613787
H      6.172504    2.722497    0.810462
H      5.642389    1.107648    1.306962
H      1.360727    3.363140    0.147644
H     -1.609168   -3.704397   -0.827093
H     -0.588047   -4.803427    0.085858
H     -1.439282   -3.534081    0.948591
H     -1.692006    1.985734   -1.892610
H     -2.914715    3.065296    0.319511
H     -4.396393    2.161588    0.653680
H     -3.733846    2.203126   -0.980930
H     -1.781260    1.846796    2.213241
H     -1.718448    0.079760    2.255310
H     -3.247769    0.919575    2.518763
