47
 xtb: 6.6.1 (8d0f1dd)
C     -4.247800   -0.582900   -1.140000
C     -3.431900   -0.459500    0.139000
C     -2.767400    0.915600    0.397300
C     -1.423000    0.712400   -0.350500
C     -1.193900   -0.759500   -0.138000
C      0.056500   -1.321900   -0.165100
C      0.263900   -2.747400   -0.171700
C      1.524900   -3.234800   -0.282300
C      2.685800   -2.407200   -0.362900
O      3.826500   -2.918900   -0.504900
C      2.490700   -0.966900   -0.245100
C      1.200000   -0.434800   -0.162700
C      1.046200    0.967500    0.008100
C      2.193300    1.788700    0.136600
C      3.485100    1.247100    0.028200
C      3.638500   -0.123000   -0.198500
O      4.861400   -0.632200   -0.358100
O      4.488600    2.172700    0.120900
C      5.791300    1.774700    0.517800
O      2.116600    3.102200    0.340100
C     -0.245800    1.587000    0.053200
O     -0.439200    2.794300    0.246400
C     -0.896100   -3.678800   -0.101700
O     -2.326600   -1.387700    0.076300
O     -1.539300    0.892900   -1.758900
C     -3.571800    2.108900   -0.100300
C     -2.488000    1.060200    1.896700
H     -3.650100   -0.284500   -1.997600
H     -4.548700   -1.619300   -1.266800
H     -5.136800    0.034800   -1.076400
H     -4.033500   -0.779900    0.994300
H      1.705600   -4.298600   -0.324300
H      4.762900   -1.632300   -0.463900
H      5.758600    1.153200    1.414700
H      6.308600    2.707600    0.732300
H      6.306200    1.235500   -0.278600
H      1.162000    3.374000    0.377700
H     -1.587000   -3.485300   -0.919100
H     -0.554900   -4.708000   -0.156800
H     -1.442800   -3.530100    0.826800
H     -1.580300    1.841700   -1.952100
H     -3.013100    3.021600    0.094000
H     -4.515400    2.160600    0.435400
H     -3.776700    2.038800   -1.163600
H     -1.951300    1.985000    2.092900
H     -1.886700    0.230100    2.265300
H     -3.425300    1.086400    2.445800
