22
 xtb: 6.6.1 (8d0f1dd)
C      3.563700    0.407300   -0.636100
C      3.519100   -0.778100    0.132700
C      2.331000   -1.304000    0.539800
C      1.115800   -0.661900    0.193300
N     -0.044400   -1.181100    0.594200
C     -1.161200   -0.543200    0.244500
C     -2.420100   -1.055600    0.646700
C     -3.563700   -0.407400    0.292400
C     -3.519100    0.778100   -0.476400
C     -2.331000    1.304000   -0.883500
C     -1.115800    0.661900   -0.537000
N      0.044400    1.181100   -0.937800
C      1.161200    0.543200   -0.588200
C      2.420100    1.055600   -0.990400
H      4.523200    0.795500   -0.941100
H      4.445600   -1.265000    0.395200
H      2.273500   -2.206600    1.126800
H     -2.431300   -1.960800    1.232400
H     -4.523200   -0.795500    0.597400
H     -4.445600    1.265000   -0.738800
H     -2.273500    2.206600   -1.470500
H      2.431300    1.960800   -1.576100
