22

C      3.594859    0.395215   -0.629884
C      3.550933   -0.769149    0.125265
C      2.316577   -1.282256    0.526498
C      1.125026   -0.652407    0.186479
N     -0.044471   -1.178887    0.592707
C     -1.169717   -0.532325    0.238159
C     -2.404000   -1.035225    0.632820
C     -3.594852   -0.395211    0.286195
C     -3.550929    0.769146   -0.468963
C     -2.316578    1.282244   -0.870217
C     -1.125025    0.652398   -0.530195
N      0.044475    1.178900   -0.936383
C      1.169719    0.532323   -0.581857
C      2.404004    1.035235   -0.976497
H      4.548327    0.807517   -0.950128
H      4.469594   -1.279426    0.403348
H      2.279327   -2.193926    1.117913
H     -2.435562   -1.947201    1.224092
H     -4.548318   -0.807538    0.606406
H     -4.469590    1.279438   -0.747011
H     -2.279342    2.193927   -1.461614
H      2.435544    1.947206   -1.567779
