16
 xtb: 6.6.1 (8d0f1dd)
C      2.270600   -0.791800   -0.033000
N      1.140000    0.092100   -0.085600
C     -0.128900   -0.362300    0.058600
N     -0.576300   -1.567200    0.253400
N     -1.948200   -1.424800    0.318300
C     -2.420600   -0.158700    0.174100
O     -3.604100    0.174000    0.202300
C     -1.195600    0.634900   -0.011900
N     -0.958400    1.897700   -0.200100
C      0.349400    2.201600   -0.327200
N      1.353300    1.364900   -0.276700
H      2.303200   -1.279600    0.940600
H      3.168500   -0.204100   -0.200800
H      2.159900   -1.563400   -0.793900
H     -2.506700   -2.251300    0.469000
H      0.593900    3.238100   -0.487100
