38
 xtb: 6.6.1 (8d0f1dd)
O     -5.830500    2.494000   -1.843000
C     -5.254400    2.036500   -0.697600
C     -3.932400    1.596900   -0.786400
C     -3.312800    1.123300    0.353800
C     -2.000500    0.590100    0.664600
C     -0.894200    0.387700   -0.118600
N     -0.799600    0.689100   -1.461500
C      0.435200    0.377800   -1.957100
C      1.201800   -0.188700   -0.811200
C      2.544200   -0.639300   -0.939300
C      3.404700   -1.252300    0.043600
C      4.637300   -1.495500   -0.608100
N      4.527700   -1.057200   -1.903500
C      3.296500   -0.554800   -2.103900
C      5.715200   -2.084500    0.036500
C      5.550400   -2.438700    1.360000
C      4.341500   -2.212000    2.017900
C      3.268600   -1.625000    1.378300
C      0.366500   -0.161200    0.269600
O      0.774000    0.554000   -3.117600
C     -2.087200    0.292000    2.081600
N     -3.234300    0.576600    2.607500
C     -4.023800    1.090000    1.582100
C     -5.330200    1.528100    1.664100
C     -5.940900    2.002800    0.513200
H     -6.743100    2.775500   -1.678700
H     -3.454900    1.646700   -1.752100
H     -1.537100    1.098300   -2.011900
H      5.257400   -1.106000   -2.597000
H      2.988400   -0.153800   -3.049600
H      6.646100   -2.259900   -0.478800
H      6.365400   -2.899600    1.896200
H      4.245600   -2.504400    3.052600
H      2.346500   -1.466500    1.912000
H      0.585300   -0.486400    1.264900
H     -1.298800   -0.122500    2.682700
H     -5.860500    1.499700    2.602100
H     -6.962900    2.349200    0.556300
