40

C      4.365010    2.846806   -0.876012
C      2.997243    2.264402   -0.674947
C      1.880214    3.012826   -0.760520
C      0.521388    2.430832   -0.556636
O     -0.473131    3.140919   -0.628181
C      0.503715    0.986057   -0.257201
C     -0.510644    0.128642   -0.007999
N      0.025559   -1.147902    0.237303
C     -0.675365   -2.420384    0.274263
C      0.173590   -3.473315    0.985667
C      1.593280   -3.499778    0.422152
C      2.266062   -2.138372    0.587920
N      1.405636   -1.086045    0.077241
C      1.759772    0.226665   -0.199260
C      2.935438    0.837074   -0.385963
C     -1.944383    0.401105    0.003167
C     -2.519734    1.136954    1.047096
C     -3.893583    1.392168    1.060805
C     -4.689147    0.907707    0.027191
C     -4.134992    0.177713   -1.017367
C     -2.761647   -0.072473   -1.032055
O     -6.033723    1.133860    0.001390
H      4.870756    2.360480   -1.717138
H      4.324295    3.920286   -1.090303
H      4.976579    2.711833    0.022627
H      1.900003    4.074346   -0.977202
H     -0.886718   -2.746340   -0.751034
H     -1.632878   -2.324936    0.798181
H     -0.292405   -4.458791    0.876469
H      0.213689   -3.250616    2.059311
H      1.557369   -3.767773   -0.641180
H      2.184850   -4.268744    0.930995
H      2.474684   -1.953020    1.648423
H      3.225169   -2.144159    0.057998
H      3.861696    0.275036   -0.338922
H     -1.896177    1.521713    1.850691
H     -4.316136    1.968903    1.876804
H     -4.766714   -0.187031   -1.821686
H     -2.329280   -0.632005   -1.857848
H     -6.259338    1.715355    0.745762
