30

C     -2.556928    2.868217   -0.328358
N     -1.483798    1.979840    0.059726
C     -1.167071    0.771590   -0.616400
C     -1.730726    0.118111   -1.706802
C     -1.074104   -1.074546   -2.126692
C      0.067272   -1.612022   -1.460558
C      0.583595   -0.947995   -0.334571
C     -0.072874    0.224194    0.014449
C      0.323965    0.999265    1.070841
C      1.401284    0.630067    1.844337
C      2.027294   -0.553033    1.469865
N      1.650242   -1.345387    0.406266
C      3.206654   -1.034465    2.257734
O      3.652381   -0.423339    3.219477
N      3.757000   -2.211608    1.830070
C     -0.587976    2.159095    1.123756
S     -0.525209    3.394632    2.233564
N      0.652464   -2.816189   -1.873199
Cl    -1.702334   -1.930357   -3.515731
N     -2.811082    0.615954   -2.427141
H     -3.513093    2.355955   -0.189438
H     -2.423614    3.165836   -1.372255
H     -2.569243    3.775282    0.279552
H      1.745797    1.214538    2.688705
H      4.554463   -2.594156    2.316980
H      3.360110   -2.692674    1.031867
H      1.498035   -3.125966   -1.408760
H      0.339974   -3.266994   -2.724065
H     -3.166925    0.051463   -3.193192
H     -3.435554    1.304689   -2.040909
