50

C     -2.521004   -3.828061   -1.118882
O     -3.307162   -2.664061   -0.871869
C     -2.652711   -1.487053   -0.564986
C     -3.548202   -0.342652   -0.270858
C     -4.942025   -0.458954   -0.114301
O     -5.607677   -1.655077   -0.189112
C     -5.753012    0.652057    0.134548
C     -5.199174    1.930137    0.215386
C     -6.063228    3.120385    0.505604
C     -3.816393    2.068980    0.075807
C     -3.002287    0.945542   -0.161143
C     -1.540558    1.159032   -0.296745
O     -1.118481    2.288150   -0.522072
C     -1.318093   -1.321299   -0.514503
C     -0.657229   -0.062456   -0.171586
C      0.657240    0.061429    0.170678
C      1.317752    1.320325    0.514120
C      2.652299    1.486481    0.564744
C      3.548120    0.342514    0.270011
C      4.941876    0.459409    0.113299
O      5.607106    1.655733    0.188624
C      5.753213   -0.651177   -0.136297
C      5.199815   -1.929412   -0.217696
C      6.064311   -3.119157   -0.508689
C      3.817097   -2.068832   -0.077960
C      3.002614   -0.945814    0.159711
C      1.540931   -1.159852    0.295298
O      1.119218   -2.289238    0.519956
O      3.306357    2.663531    0.872335
C      2.519797    3.827361    1.118881
H     -3.206268   -4.657104   -1.318834
H     -1.889955   -3.692633   -2.003046
H     -1.922451   -4.090323   -0.240529
H     -4.949024   -2.335317   -0.430462
H     -6.824557    0.506852    0.256397
H     -7.069886    2.981436    0.097473
H     -5.649264    4.024513    0.046903
H     -6.137745    3.274133    1.586494
H     -3.363524    3.056721    0.152659
H     -0.677848   -2.160989   -0.751637
H      0.677213    2.159649    0.751818
H      4.948331    2.335481    0.431094
H      6.824681   -0.505540   -0.258271
H      5.650459   -4.023833   -0.050985
H      6.139275   -3.271901   -1.589679
H      7.070756   -2.980273   -0.100058
H      3.364564   -3.056697   -0.155315
H      3.204754    4.656621    1.318999
H      1.888491    3.691880    2.002822
H      1.921485    4.089352    0.240304
