39
 xtb: 6.6.1 (8d0f1dd)
O      6.070400    2.622900    1.637400
C      5.266700    1.671600    1.125600
C      3.874500    1.762800    1.161400
C      3.093500    0.764100    0.624900
C      5.864200    0.552600    0.537800
C      5.083800   -0.442800    0.002800
C      3.681100   -0.364000    0.032100
C      2.921700   -1.435300   -0.540400
C      1.580000   -1.585700   -0.622700
C      0.891200   -2.735700   -1.229500
O      1.418200   -3.716200   -1.753600
O      0.650100   -0.687400   -0.143900
C     -0.574800   -1.184400   -0.399100
C     -0.517100   -2.419500   -1.055800
C     -1.691700   -3.067800   -1.427900
C     -2.886100   -2.481100   -1.093700
C     -2.951500   -1.251000   -0.413000
C     -1.780300   -0.530700   -0.089900
C     -1.676000    0.878600    0.344300
C     -2.818500    1.776300    0.127500
C     -4.092700    1.477600    0.384200
C     -5.220900    2.426500    0.193900
C     -4.431200    0.101600    0.895700
O     -4.203300   -0.890600   -0.095900
O     -0.613800    1.336400    0.757800
H      5.556300    3.352200    2.019300
H      3.401100    2.621700    1.613600
H      2.019900    0.855200    0.663000
H      6.940600    0.495100    0.517300
H      5.551700   -1.303600   -0.449500
H      3.478800   -2.256200   -0.975100
H     -1.645100   -4.011500   -1.946200
H     -3.825400   -2.955100   -1.326500
H     -2.535600    2.776600   -0.168600
H     -5.730400    2.591100    1.141700
H     -4.873500    3.377500   -0.196500
H     -5.942800    1.995100   -0.497600
H     -5.493900    0.014000    1.124800
H     -3.839100   -0.130900    1.789900
