35

C     -5.221031    0.072822   -0.488858
C     -4.460933   -0.631581   -1.422852
C     -3.081921   -0.638943   -1.283723
C     -2.441915    0.044328   -0.228184
C     -3.192874    0.744542    0.700760
C     -4.581979    0.749200    0.556634
O     -5.302134    1.446270    1.484388
C     -1.012158   -0.214707   -0.446737
C     -1.011677   -1.054149   -1.658086
N     -2.193855   -1.306660   -2.150868
O      0.128836   -1.526514   -2.215902
C      1.334269   -1.180029   -1.584979
C      1.376292   -0.379465   -0.425122
C      0.122536    0.141344    0.190300
N      0.116709    0.932801    1.331810
C      1.078316    1.438641    2.166212
C      2.409643    1.339820    2.168191
C      3.164409    0.621479    1.213531
C      4.536573    0.531833    1.233188
N      4.908363   -0.235203    0.166658
C      3.797124   -0.640872   -0.539449
C      2.665374   -0.112123    0.100676
C      3.732578   -1.432364   -1.688663
C      2.471562   -1.695919   -2.205949
H     -6.302085    0.084742   -0.589051
H     -4.929299   -1.164872   -2.243317
H     -2.761242    1.286487    1.529729
H     -6.246895    1.368518    1.269603
H     -0.813327    1.204358    1.622682
H      0.625498    2.025921    2.964529
H      2.953147    1.848179    2.960820
H      5.277176    0.942458    1.906190
H      5.859484   -0.475189   -0.076369
H      4.624964   -1.827822   -2.162435
H      2.370471   -2.307332   -3.099256
