34
 xtb: 6.6.1 (8d0f1dd)
C     -2.312600   -3.617300    3.156500
C     -2.077700   -4.690400    2.285200
C     -1.444500   -4.513900    1.075400
C     -1.042100   -3.222400    0.746100
C     -1.275300   -2.128500    1.623900
C     -1.919900   -2.336200    2.842900
C     -0.736700   -0.978800    0.971700
C     -0.214300   -1.417100   -0.242000
N     -0.403000   -2.753900   -0.363500
C      0.438000   -0.587800   -1.239300
O      0.866900   -1.083100   -2.279300
C      0.517300    0.841300   -0.870300
C     -0.005700    1.284900    0.346000
C     -0.672100    0.400100    1.359100
O     -1.107700    0.857600    2.410500
C      0.066200    2.627900    0.697900
N      0.621600    3.556500   -0.076600
C      1.157400    3.180700   -1.294900
C      1.738100    4.172500   -2.098700
C      2.282200    3.847600   -3.312300
C      2.254700    2.517200   -3.746200
C      1.690700    1.535700   -2.973900
C      1.118400    1.824900   -1.716200
O      0.660800    4.769700    0.293000
H     -2.813100   -3.806700    4.093200
H     -2.403600   -5.676700    2.575300
H     -1.265800   -5.341000    0.408000
H     -2.095900   -1.504200    3.506300
H     -0.106800   -3.294700   -1.164200
H     -0.340800    2.963400    1.641100
H      1.734900    5.183400   -1.720900
H      2.728400    4.610700   -3.928800
H      2.683200    2.260800   -4.701900
H      1.678700    0.518200   -3.324700
