34

C     -2.335554   -3.661725    3.188348
C     -2.105746   -4.732923    2.328076
C     -1.461450   -4.547642    1.101232
C     -1.057229   -3.248994    0.770970
C     -1.273695   -2.154196    1.613155
C     -1.925368   -2.368989    2.843874
C     -0.735837   -1.012597    0.955738
C     -0.214939   -1.428978   -0.246557
N     -0.412485   -2.779988   -0.351361
C      0.424838   -0.590181   -1.221432
O      0.856771   -1.057023   -2.263594
C      0.518209    0.879504   -0.862967
C     -0.019325    1.298066    0.373570
C     -0.674036    0.374164    1.346833
O     -1.121282    0.798753    2.404046
C      0.042277    2.635883    0.746864
N      0.620545    3.585759   -0.063012
C      1.168095    3.203422   -1.306216
C      1.759296    4.191746   -2.127791
C      2.314654    3.876968   -3.361602
C      2.288554    2.564125   -3.797058
C      1.708495    1.570281   -2.999938
C      1.127438    1.842088   -1.730399
O      0.644743    4.796342    0.338263
H     -2.838534   -3.828289    4.137984
H     -2.432712   -5.730057    2.615068
H     -1.285111   -5.386116    0.434995
H     -2.109080   -1.538868    3.521810
H     -0.124172   -3.344471   -1.140973
H     -0.342144    3.044506    1.671822
H      1.782502    5.228487   -1.789180
H      2.763325    4.654188   -3.975046
H      2.719297    2.300953   -4.761068
H      1.729659    0.565799   -3.415791
