31

C     -0.199037   -1.169039    2.251059
C      0.097908   -2.104675    3.246149
C      1.336417   -2.724317    3.241493
C      2.276782   -2.425113    2.260698
C      1.987299   -1.497954    1.263741
C      0.741431   -0.847705    1.253055
C      0.383736    0.128839    0.199641
C      1.208718    1.110898   -0.209647
C      0.740277    2.045774   -1.261400
O      1.476626    2.948527   -1.646369
C     -0.609502    1.830378   -1.791603
C     -1.362310    0.778509   -1.279273
O     -0.899023   -0.063391   -0.301686
C     -2.649049    0.548653   -1.762463
C     -3.166670    1.377157   -2.754483
C     -2.419565    2.433034   -3.272918
C     -1.130458    2.662413   -2.788288
O     -4.428947    1.117880   -3.198745
O      2.477714    1.329040    0.296791
O      3.480732   -3.073234    2.316084
O      1.629985   -3.637832    4.212377
H     -1.174370   -0.686309    2.263821
H     -0.630307   -2.345000    4.014505
H      2.720076   -1.276688    0.493660
H     -3.246683   -0.269787   -1.370928
H     -2.820274    3.081412   -4.046519
H     -0.537077    3.483805   -3.184461
H     -4.664506    1.765494   -3.883849
H      2.798010    2.132492   -0.167474
H      4.042626   -2.722475    1.603332
H      2.539441   -3.930785    4.003705
