55

C      6.755918   -0.703983   -0.592189
C      6.625699   -0.514422    0.914774
C      5.494992   -1.322818    1.587183
C      5.603535   -2.817780    1.260744
C      4.072220   -0.856241    1.341227
C      3.661696    0.238061    0.676127
C      2.275724    0.638928    0.504847
C      1.921895    1.770067   -0.131973
C      0.506036    2.131932   -0.221364
C      0.081791    3.317744   -0.715108
C     -1.386117    3.661785   -0.695017
O     -1.845061    4.543207   -1.419180
C     -2.268246    2.865365    0.287574
C     -1.915433    1.427082    0.136579
C     -2.980400    0.697864   -0.226589
C     -4.101634    1.648151   -0.248229
O     -5.272000    1.363057   -0.413984
O     -3.649850    2.910293   -0.028037
C     -3.053543   -0.733730   -0.615652
O     -2.163903   -1.514915   -0.261725
C     -4.211075   -1.231446   -1.482008
C     -3.621874   -1.855604   -2.759725
C     -5.051872   -2.260120   -0.695647
C     -5.719868   -1.688047    0.552150
O     -6.078784   -2.796935   -1.539948
C     -0.495654    1.141962    0.249549
C     -0.012002    0.062363    0.889431
O      1.329980   -0.219382    1.060945
C     -2.103356    3.408485    1.708775
Cl     1.127652    4.539706   -1.351301
H      7.490170    0.000907   -0.994077
H      5.811262   -0.536543   -1.112616
H      7.107332   -1.711907   -0.837967
H      7.580596   -0.804260    1.373316
H      6.503159    0.552578    1.135359
H      5.652494   -1.224363    2.670914
H      4.918929   -3.405149    1.884197
H      6.617485   -3.187060    1.451551
H      5.352580   -3.024248    0.213427
H      3.315927   -1.496245    1.798801
H      4.397441    0.903868    0.231986
H      2.679383    2.423291   -0.554021
H     -4.846908   -0.410844   -1.823776
H     -2.959591   -1.146258   -3.271697
H     -3.035627   -2.752731   -2.536430
H     -4.413801   -2.137357   -3.464808
H     -4.419000   -3.103368   -0.390312
H     -4.991106   -1.269199    1.256441
H     -6.282608   -2.473984    1.073864
H     -6.445701   -0.912510    0.288206
H     -6.733712   -2.095773   -1.712028
H     -0.600693   -0.717407    1.356652
H     -1.060779    3.420701    2.039060
H     -2.479381    4.437010    1.769010
H     -2.684319    2.820224    2.427812
