101

C    -16.022295    2.668884    2.983036
C    -14.672970    1.971487    3.067411
C    -14.547424    0.781619    2.112800
C    -14.672258    1.117828    0.622141
C    -13.648104    2.120531    0.079661
C    -12.205405    1.617844    0.188063
C    -11.226228    2.579020   -0.490627
C     -9.818184    1.994442   -0.641829
C     -9.040532    1.903750    0.674929
C     -7.799604    1.006909    0.574255
C     -6.770598    1.480918   -0.460164
C     -5.598487    0.500952   -0.654960
C     -5.931663   -0.937793   -0.996102
C     -6.899140   -1.295368   -1.946456
C     -7.214440   -2.635438   -2.212598
C     -6.549745   -3.667501   -1.541093
C     -5.538421   -3.338935   -0.637228
C     -5.220801   -1.995179   -0.401428
O     -4.157659   -1.747681    0.478505
C     -2.952382   -1.678932   -0.198424
O     -2.761920   -1.728403   -1.404380
C     -1.873239   -1.555324    0.811281
C     -0.611550   -1.387221    0.389760
C      0.542022   -1.294292    1.261562
C      1.768284   -1.083489    0.758467
C      2.985795   -1.000925    1.535557
C      4.163950   -0.763854    0.940207
C      5.437001   -0.680325    1.619839
C      6.566515   -0.432394    0.936786
C      7.889232   -0.360171    1.520274
C      8.971009   -0.127196    0.759007
C     10.330735   -0.085950    1.253881
C     11.371789    0.094408    0.426706
C     12.753772    0.097869    0.849699
C     13.763223    0.205811   -0.027201
C     15.159566    0.163709    0.348903
C     16.144405    0.178216   -0.567170
C     17.593628    0.108280   -0.306527
C     18.472618    0.387229   -1.366798
C     19.864818    0.303546   -1.207106
C     20.373188   -0.063582    0.039978
C     19.522445   -0.348821    1.103757
C     18.137979   -0.267437    0.927101
O     21.726613   -0.147191    0.201554
C     20.781210    0.597682   -2.358284
C     -6.862880   -5.106447   -1.824155
O     -7.547784   -0.317775   -2.649758
H    -16.097241    3.441082    3.755060
H    -16.840935    1.956614    3.133122
H    -16.159317    3.152410    2.010512
H    -14.534617    1.606876    4.092670
H    -13.870636    2.694939    2.889798
H    -13.587808    0.283913    2.297618
H    -15.322075    0.045647    2.363578
H    -15.679327    1.497976    0.414676
H    -14.584284    0.183510    0.051718
H    -13.749875    3.086322    0.589756
H    -13.885853    2.298388   -0.977815
H    -11.932807    1.504161    1.242572
H    -12.132858    0.627510   -0.278725
H    -11.599144    2.817059   -1.497082
H    -11.185269    3.525755    0.061152
H     -9.267379    2.638550   -1.338034
H     -9.888658    1.006378   -1.112205
H     -9.682703    1.494116    1.461498
H     -8.748779    2.910427    0.994250
H     -7.320550    0.968653    1.559046
H     -8.132491   -0.011668    0.349903
H     -7.247251    1.682981   -1.422452
H     -6.365311    2.446797   -0.130254
H     -4.939132    0.883928   -1.443277
H     -5.014142    0.530958    0.271345
H     -7.988761   -2.883232   -2.933958
H     -4.978410   -4.124405   -0.132157
H     -2.144303   -1.621655    1.857450
H     -0.416095   -1.327352   -0.682572
H      0.392130   -1.414108    2.333717
H      1.880390   -0.967323   -0.320332
H      2.916905   -1.143784    2.610439
H      4.189031   -0.621659   -0.138915
H      5.457598   -0.833559    2.694391
H      6.513449   -0.280420   -0.140710
H      7.986842   -0.520632    2.591171
H      8.846240    0.021849   -0.314212
H     10.490334   -0.232454    2.319644
H     11.191187    0.227394   -0.638477
H     12.957797   -0.013231    1.912828
H     13.546829    0.308164   -1.089876
H     15.376738    0.108501    1.412524
H     15.878338    0.242577   -1.621823
H     18.072349    0.669023   -2.339524
H     19.914112   -0.636202    2.074680
H     17.498494   -0.515770    1.767445
H     21.913951   -0.409110    1.117086
H     21.377967   -0.288447   -2.599909
H     21.447698    1.430361   -2.108383
H     20.223549    0.877682   -3.259615
H     -7.773069   -5.206022   -2.428361
H     -6.032864   -5.564614   -2.372115
H     -7.025009   -5.654209   -0.886384
H     -8.121061   -0.733959   -3.313875
