35

C      5.929362    1.232686    0.278517
C      4.478217    0.858592    0.441023
O      3.870870    1.134050    1.475330
C      3.839756    0.151707   -0.743615
C      2.417971   -0.294753   -0.501666
C      1.351408    0.597365   -0.683515
C      0.033162    0.193587   -0.424838
C     -0.230103   -1.100658    0.019873
C      0.834255   -1.992358    0.199636
C      2.146167   -1.594013   -0.054359
O      0.668388   -3.282473    0.626812
C     -1.618469   -1.512247    0.298438
O     -1.855116   -2.658101    0.678555
C     -2.724034   -0.551607    0.124381
C     -2.454146    0.741892   -0.324347
C     -1.070165    1.153036   -0.631088
O     -0.844465    2.277944   -1.061539
C     -3.495230    1.666139   -0.495110
C     -4.801350    1.281795   -0.212904
C     -5.085056   -0.003709    0.233477
C     -4.047970   -0.918488    0.401383
O     -4.402618   -2.164970    0.842475
O     -5.843132    2.146959   -0.364228
H      6.285884    1.731573    1.183985
H      6.038728    1.915354   -0.567706
H      6.524291    0.330637    0.115744
H      3.866926    0.830408   -1.604304
H      4.457306   -0.717942   -0.997835
H      1.547331    1.617482   -1.013469
H      2.953729   -2.304810    0.110179
H     -0.289315   -3.436875    0.784360
H     -3.274736    2.671618   -0.845400
H     -6.109926   -0.293347    0.450420
H     -3.590629   -2.712982    0.918715
H     -5.507291    3.006509   -0.670215
