47

C     -3.005392   -0.125910   -2.930572
C     -2.660565    0.414711   -1.545136
C     -3.687597    1.489123   -1.097946
C     -3.421953    2.860760   -1.756907
C     -2.035887    3.429257   -1.370416
C     -0.965773    2.374960   -1.439901
C      0.412043    2.516860   -1.359167
N      0.952631    1.243129   -1.336911
C     -0.051502    0.297848   -1.362357
C     -1.258869    0.972038   -1.498056
C      0.261724   -1.091725   -1.205521
C      0.969513   -1.538430   -0.155717
C      1.071196   -2.931320    0.247121
C      1.560509   -3.026178    1.488955
C      1.870343   -1.617856    1.783343
N      1.582617   -0.771474    0.827203
C      2.414211   -1.158581    3.015983
C      2.731299   -1.879007    4.180669
C      3.299329   -0.978234    5.119672
C      3.353784    0.249260    4.510826
N      2.776766    0.145816    3.257973
O      0.731340   -3.926565   -0.629464
C      0.796551   -5.257299   -0.116030
C      1.263601    3.736608   -1.248870
H     -2.970114    0.654615   -3.707963
H     -2.290221   -0.919706   -3.216180
H     -4.013062   -0.571647   -2.935335
H     -2.735229   -0.433438   -0.837489
H     -4.715970    1.159972   -1.339650
H     -3.651085    1.596964   -0.002393
H     -3.460473    2.765145   -2.849409
H     -4.216812    3.568073   -1.474396
H     -1.793149    4.283452   -2.031987
H     -2.087777    3.813462   -0.339030
H      1.928376    1.040288   -1.132973
H     -0.252687   -1.801977   -1.848749
H      1.807414   -3.870491    2.101786
H      2.520993   -2.936232    4.329422
H      3.594009   -1.207219    6.133024
H      3.696344    1.224321    4.854306
H      2.808907    0.878639    2.560432
H      0.453014   -5.945583   -0.902412
H      1.829130   -5.518032    0.140784
H      0.142930   -5.369132    0.758982
H      0.658129    4.647794   -1.349199
H      1.751641    3.760025   -0.265021
H      2.035771    3.752916   -2.025321
