78

C     -6.716968    0.076668   -0.232722
C     -5.823005   -1.103406    0.128450
O     -4.463126   -0.648707    0.074960
C     -3.515093   -1.700519    0.312920
C     -3.714670   -2.247750    1.729869
C     -5.143788   -2.745669    1.899235
O     -5.379759   -3.135881    3.256558
C     -6.150321   -1.651652    1.523192
O     -7.469236   -2.199174    1.569904
C     -2.112510   -1.167100    0.123767
C     -1.774437    0.133803    0.110120
C     -0.406592    0.606772   -0.089771
C     -0.080936    1.921141   -0.059463
C     -1.037213    2.969807    0.159858
C     -1.306221    3.544698    1.383329
N     -2.267053    4.502697    1.187295
C     -2.638096    4.544196   -0.138815
C     -3.583607    5.350508   -0.783409
C     -3.748995    5.179970   -2.160496
C     -2.996516    4.241854   -2.863173
C     -2.055394    3.442366   -2.204884
C     -1.870870    3.593683   -0.814859
C      1.333028    2.365586   -0.261371
O      1.687976    3.535310   -0.166353
O      2.264685    1.375981   -0.550503
C      1.964140    0.005447   -0.560080
C      0.648076   -0.390065   -0.328812
C      0.341703   -1.754808   -0.336464
C     -1.055139   -2.192754   -0.095698
O     -1.322485   -3.392468   -0.075341
C      1.353503   -2.700086   -0.569430
O      1.090816   -4.050178   -0.573125
C      2.680329   -2.289858   -0.799726
C      3.006249   -0.911409   -0.795674
C      4.437594   -0.508920   -1.143148
O      4.478545   -0.440533   -2.595016
C      4.928169    0.849802   -0.635480
O      5.016214    1.806563   -1.413156
C      5.267308    0.982366    0.826992
C      6.274303   -0.088915    1.241061
C      6.477493   -0.039521    2.758425
O      7.543389    0.210432    0.660844
C      5.811338   -1.490757    0.820215
C      5.486953   -1.577116   -0.684153
O      6.706619   -1.386506   -1.420495
C      5.026128   -2.976651   -0.987158
C      3.727321   -3.295096   -1.056732
H     -6.593924    0.894575    0.485542
H     -7.772425   -0.210556   -0.261236
H     -6.439234    0.478196   -1.213647
H     -5.971909   -1.880150   -0.633074
H     -3.699532   -2.484024   -0.434082
H     -3.012126   -3.057929    1.957665
H     -3.524421   -1.462358    2.474741
H     -5.316575   -3.635970    1.281699
H     -4.743586   -3.842611    3.472210
H     -6.103323   -0.847374    2.268561
H     -7.534078   -2.627295    2.446509
H     -2.560370    0.872616    0.258639
H     -0.894575    3.372911    2.368861
H     -2.652281    5.099852    1.906338
H     -4.169864    6.085015   -0.240284
H     -4.474086    5.793061   -2.691501
H     -3.139487    4.129351   -3.935100
H     -1.474999    2.715936   -2.766257
H      0.131036   -4.192178   -0.410780
H      4.558631    0.514261   -2.812326
H      5.683877    1.984069    0.985297
H      4.336995    0.905041    1.399825
H      6.835509    0.947195    3.072145
H      5.550396   -0.259146    3.298638
H      7.241435   -0.760585    3.072526
H      7.643537   -0.291211   -0.176513
H      4.933423   -1.778310    1.413945
H      6.612700   -2.206002    1.053232
H      6.428407   -1.347029   -2.360547
H      5.779031   -3.746597   -1.136304
H      3.421964   -4.316909   -1.269377
