92
 xtb: 6.6.1 (8d0f1dd)
C    -12.756100   -2.444100   -0.151200
C    -12.759100   -0.943600   -0.116300
C    -13.953300   -0.324800    0.110200
C    -14.122500    1.095100    0.060700
O    -15.162800    1.672300    0.394000
C    -12.948000    1.836200   -0.518400
C    -11.583600    1.303900   -0.049900
C    -11.522900   -0.210500   -0.217600
C    -10.356500   -0.917100   -0.361400
C     -9.020100   -0.491300   -0.202400
C     -7.895600   -1.219500   -0.501600
C     -6.628200   -0.664100   -0.162700
C     -5.412000   -1.236200   -0.388200
C     -4.201400   -0.608900   -0.020800
C     -2.925500   -1.075000   -0.203300
C     -1.840100   -0.257800    0.227300
C     -0.515700   -0.545300    0.102500
C      0.508500    0.326300    0.542500
C      1.832900    0.047600    0.399600
C      2.918800    0.876900    0.805300
C      4.194900    0.442100    0.558600
C      5.407000    1.100500    0.861200
C      6.622800    0.568100    0.552100
C      7.891800    1.165000    0.802300
C      9.015300    0.485800    0.401600
C     10.341000    0.969400    0.444200
C     11.518700    0.312100    0.196800
C     11.629400   -1.199900    0.034000
C     13.049400   -1.668300    0.393300
C     14.139900   -0.886100   -0.287300
O     15.175100   -1.423100   -0.695400
C     13.904400    0.524200   -0.342400
C     12.708000    1.095300   -0.021900
C     12.640900    2.594500   -0.007100
C     10.681400   -1.984400    0.958700
C     11.352500   -1.554200   -1.435500
C      7.929700    2.488200    1.504300
C      2.606000    2.180900    1.474000
C     -2.612400   -2.395200   -0.839400
C     -7.925400   -2.551400   -1.187100
C    -11.413100    1.636100    1.440900
C    -10.530800    2.052800   -0.886800
H    -13.766400   -2.818800   -0.013900
H    -12.127300   -2.853100    0.636500
H    -12.390200   -2.802400   -1.111600
H    -14.838100   -0.905200    0.331300
H    -13.045100    2.896900   -0.278000
H    -13.021600    1.729100   -1.605400
H    -10.468500   -1.967200   -0.582500
H     -8.852100    0.470100    0.255400
H     -6.645000    0.304600    0.322500
H     -5.366500   -2.201000   -0.868200
H     -4.306500    0.359800    0.454600
H     -2.108000    0.684700    0.689900
H     -0.201600   -1.472200   -0.356000
H      0.194500    1.251600    1.004300
H      2.100700   -0.890200   -0.072500
H      4.299400   -0.519200    0.068500
H      5.363100    2.061800    1.348400
H      6.637400   -0.396000    0.057900
H      8.849100   -0.478500   -0.050900
H     10.426200    2.024600    0.652900
H     13.207000   -1.544400    1.469500
H     13.171800   -2.727000    0.155700
H     14.740700    1.137800   -0.646800
H     13.615000    3.010500   -0.248500
H     11.919700    2.961900   -0.733600
H     12.355600    2.953000    0.980200
H      9.712400   -2.154600    0.504000
H     10.540100   -1.461100    1.900600
H     11.109800   -2.961400    1.171800
H     12.114100   -1.113700   -2.077000
H     11.373900   -2.633100   -1.571500
H     10.381600   -1.178700   -1.747500
H      8.942900    2.800800    1.729100
H      7.455600    3.251600    0.889000
H      7.383300    2.422300    2.443200
H      2.031500    2.815100    0.800500
H      3.503600    2.714400    1.764100
H      2.007000    2.006100    2.366300
H     -3.510000   -2.943400   -1.100700
H     -2.027100   -2.241700   -1.744800
H     -2.024000   -3.005800   -0.156500
H     -7.486200   -3.312400   -0.543800
H     -7.341800   -2.505400   -2.104900
H     -8.932800   -2.854900   -1.446900
H    -11.400800    2.714000    1.585900
H    -10.487400    1.217800    1.827100
H    -12.242300    1.223600    2.013600
H     -9.596300    2.179900   -0.352500
H    -10.899300    3.048100   -1.125900
H    -10.334200    1.528800   -1.818200
