30

C     -4.671151   -0.943604   -0.371529
C     -3.371306   -1.452480   -0.430928
C     -2.279841   -0.598899   -0.221861
C     -2.474839    0.762478    0.046824
C     -3.786322    1.243593    0.100216
C     -4.880365    0.410037   -0.104881
O     -4.008818    2.569109    0.360736
N     -1.415635    1.672482    0.266224
C     -0.234319    1.158804    0.201911
C      1.080527    1.893470    0.394427
O      1.229914    3.067491    0.636764
C      2.120382    0.878797    0.224098
C      3.494445    1.022539    0.299130
C      4.237256   -0.131152    0.090746
C      3.607310   -1.360849   -0.178929
C      2.219956   -1.482825   -0.250002
C      1.475156   -0.336977   -0.043272
N      0.077817   -0.161654   -0.054584
C     -0.889901   -1.116838   -0.280059
O     -0.688215   -2.303194   -0.513134
O      4.373618   -2.475204   -0.378576
O      5.604173   -0.124970    0.137725
H     -5.521704   -1.602115   -0.533093
H     -3.212933   -2.508861   -0.639185
H     -5.887776    0.814305   -0.056847
H     -3.115002    2.957103    0.469065
H      3.942309    1.986402    0.508972
H      1.767502   -2.446139   -0.459888
H      5.298674   -2.170336   -0.286019
H      5.909088    0.779486    0.330784
