47
 xtb: 6.6.1 (8d0f1dd)
C      2.492200   -4.566800    0.036800
N      2.184100   -3.193200   -0.254700
C      3.099200   -2.263500   -0.582600
C      2.487600   -1.032700   -0.748600
C      1.115400   -1.242400   -0.496900
C      0.960500   -2.604600   -0.181900
C     -0.301000   -3.222400    0.145700
O     -0.489400   -4.422900    0.394200
C     -1.368700   -2.242800    0.158800
C     -1.250100   -0.873600   -0.100500
C      0.014200   -0.289300   -0.535200
O      0.139200    0.873100   -0.926000
C     -2.548700   -0.316600    0.041500
C     -3.386900   -1.373500    0.367900
N     -2.667800   -2.510000    0.438200
C     -2.960800    1.076300   -0.084200
C     -2.185300    2.107400    0.442900
C     -2.588800    3.420600    0.336000
C     -3.784700    3.736400   -0.305200
C     -4.570500    2.713900   -0.825700
C     -4.162300    1.399700   -0.710200
O     -4.138400    5.045300   -0.391900
C      3.178500    0.258500   -1.017400
C      3.691000    0.871000    0.300900
N      2.614100    1.274900    1.181800
C      1.972400    2.541100    0.915300
C      2.145700    0.428800    2.090900
O      2.590300   -0.685600    2.336600
H      1.582200   -5.160100   -0.019700
H      3.226100   -4.936400   -0.676800
H      2.900700   -4.647800    1.045800
H      4.136500   -2.516200   -0.680600
H     -4.438200   -1.355100    0.573200
H     -3.012700   -3.431400    0.665900
H     -1.261500    1.871400    0.947100
H     -1.992900    4.222600    0.742100
H     -5.500300    2.946100   -1.324400
H     -4.772000    0.613600   -1.128500
H     -4.980100    5.142000   -0.863000
H      2.489200    0.950900   -1.499400
H      4.037300    0.090100   -1.666700
H      4.283500    0.126400    0.837800
H      4.303600    1.747000    0.084400
H      2.731400    3.299700    0.734500
H      1.369500    2.833300    1.772100
H      1.322300    2.462600    0.039900
H      1.294200    0.834100    2.666700
