31
 xtb: 6.6.1 (8d0f1dd)
C      4.561200   -0.798300   -0.084900
C      3.214100   -0.164900   -0.040900
C      3.038900    1.192700   -0.013800
C      1.761500    1.777700    0.027300
C      0.620300    0.956200    0.043100
C      0.782700   -0.455100    0.016300
C      2.071500   -1.010200   -0.026700
O      2.307000   -2.320300   -0.056100
C     -0.376700   -1.326800    0.033600
O     -0.240600   -2.576400    0.012100
C     -1.700400   -0.731500    0.076700
C     -2.838100   -1.558600    0.092100
C     -4.118000   -0.975000    0.133000
C     -4.269300    0.381500    0.159300
C     -3.149000    1.233300    0.145900
C     -1.858300    0.678200    0.103200
C     -0.697000    1.550900    0.086100
O     -0.837400    2.801400    0.108000
O     -3.389800    2.544400    0.175400
O     -2.786300   -2.890200    0.070600
O      1.712000    3.109000    0.049000
H      4.686800   -1.452100    0.776200
H      5.343800   -0.047700   -0.092400
H      4.643100   -1.424200   -0.971700
H      3.885900    1.860300   -0.023700
H      1.445500   -2.809300   -0.041900
H     -4.967900   -1.637700    0.143100
H     -5.244200    0.839900    0.191400
H     -2.527300    3.033400    0.161300
H     -1.838800   -3.180300    0.043700
H      0.764600    3.399500    0.076000
