40

C     -2.169734    2.063492   -0.986656
C     -0.922890    2.309473   -0.142099
N      0.153113    1.321964   -0.338646
C      0.051880    0.056722   -0.131658
C     -1.141857   -0.778403    0.189663
C     -0.976049   -2.118080    0.621111
C     -2.070682   -2.919018    0.942753
C     -3.372760   -2.430617    0.810882
C     -3.530450   -1.128946    0.319612
C     -2.451158   -0.302624    0.000116
C     -2.987198    0.914532   -0.506283
C     -4.361364    0.813634   -0.457758
N     -4.677782   -0.417049    0.051551
O      0.268470   -2.724573    0.701315
C      1.291298   -2.007173    0.248720
C      1.292003   -0.700371   -0.179438
C      2.628893   -0.383727   -0.559907
C      3.398055   -1.536226   -0.350111
N      2.555082   -2.505344    0.150731
C      4.770558   -1.591166   -0.623917
C      5.377152   -0.435865   -1.124420
C      4.635665    0.718959   -1.335438
C      3.267464    0.769615   -1.062266
O      5.293477    1.812919   -1.822169
C     -1.233236    2.505517    1.341133
O     -0.839116    1.842265    2.287662
O     -2.028408    3.576200    1.567184
H     -2.793443    2.966714   -0.983064
H     -1.882005    1.881015   -2.029618
H     -0.487751    3.261797   -0.473835
H     -1.911602   -3.938957    1.284101
H     -4.227304   -3.054447    1.053809
H     -5.139431    1.510060   -0.742372
H     -5.616175   -0.765743    0.192627
H      2.830808   -3.442126    0.406012
H      5.350396   -2.492281   -0.454142
H      6.440813   -0.438543   -1.347986
H      2.687606    1.671417   -1.225688
H      4.653470    2.540667   -1.891835
H     -2.125811    3.574316    2.542872
