33

C      6.521950    0.495065    0.558678
C      5.309263   -0.162939   -0.015510
C      4.053030    0.149903    0.334928
C      2.897591   -0.504530   -0.235881
C      1.639749   -0.192064    0.108974
C      0.503351   -0.924308   -0.512143
O      0.671302   -1.958878   -1.155507
C     -0.882527   -0.423007   -0.298790
C     -1.964363   -1.321116   -0.383853
C     -3.286850   -0.898036   -0.163386
C     -3.506354    0.463840    0.102622
C     -2.447363    1.382254    0.166750
C     -1.137125    0.930113   -0.041242
C     -2.709256    2.838605    0.434822
O     -4.764418    0.968702    0.301811
C     -4.429575   -1.874294   -0.238628
O     -1.768871   -2.648390   -0.685967
H      7.155127   -0.252175    1.046660
H      7.101326    0.969178   -0.239412
H      6.267318    1.261648    1.297325
H      5.495242   -0.937100   -0.757352
H      3.879969    0.924727    1.079167
H      3.079914   -1.283126   -0.976286
H      1.429955    0.566400    0.851765
H     -0.328664    1.655822   -0.023887
H     -1.776882    3.409393    0.499307
H     -3.309688    3.269646   -0.372727
H     -3.236367    2.961502    1.386541
H     -5.425094    0.276224    0.147418
H     -4.100132   -2.914279   -0.317680
H     -5.050991   -1.654507   -1.112766
H     -5.041627   -1.810308    0.667428
H     -0.838939   -2.763963   -0.986705
