33
 xtb: 6.6.1 (8d0f1dd)
C      6.504200    0.536200    0.481700
C      5.292200   -0.184900    0.023400
C      4.034800    0.188900    0.291900
C      2.888000   -0.534100   -0.164300
C      1.613100   -0.170100    0.079700
C      0.494800   -0.972500   -0.394500
O      0.705900   -2.105400   -0.884100
C     -0.864200   -0.455200   -0.252300
C     -1.964600   -1.328200   -0.416500
C     -3.272200   -0.869200   -0.221600
C     -3.482700    0.470200    0.091600
C     -2.405600    1.369600    0.203400
C     -1.129800    0.891900    0.038100
C     -2.691800    2.808700    0.501900
O     -4.721200    0.972600    0.285900
C     -4.432200   -1.816600   -0.367200
O     -1.799900   -2.623900   -0.745700
H      7.120600   -0.125200    1.089400
H      7.104100    0.835400   -0.376700
H      6.245000    1.417000    1.062300
H      5.463800   -1.075000   -0.568300
H      3.848200    1.076500    0.881700
H      3.058900   -1.429200   -0.750300
H      1.404600    0.709800    0.664800
H     -0.313800    1.592200    0.105200
H     -1.773700    3.387000    0.530700
H     -3.354100    3.221100   -0.256900
H     -3.202100    2.894900    1.459600
H     -5.393100    0.279600    0.193900
H     -4.056400   -2.796600   -0.645600
H     -5.116200   -1.479900   -1.145700
H     -4.974600   -1.915100    0.572700
H     -0.830200   -2.770400   -0.901800
