40

C      2.484529   -5.318647    0.103195
C      1.342333   -5.945774    0.593199
C      0.242991   -5.200108    1.026411
C      0.332653   -3.805665    0.944244
C      1.457357   -3.143781    0.455946
C      2.556745   -3.922213    0.031996
C      1.184245   -1.739261    0.533818
C     -0.096380   -1.576493    1.021956
N     -0.570813   -2.839590    1.307973
C     -0.904195   -0.410044    1.292132
O     -1.813119   -0.475550    2.119454
C     -0.654343    0.882854    0.532966
N      0.649477    1.286441    0.295360
C      1.854652    0.620495    0.159027
C      2.107093   -0.697918    0.225948
C      3.002794    1.539539   -0.162320
O      2.860543    2.742912   -0.331310
O      4.211634    0.964157   -0.249606
C     -1.739625    1.607863    0.174917
C     -3.178509    1.262819    0.410846
N     -4.019397    2.152650   -0.036027
C     -3.218644    3.150068   -0.624291
C     -3.710895    4.284821   -1.248275
C     -2.805156    5.168785   -1.833032
C     -1.429987    4.898704   -1.796937
C     -0.937168    3.748464   -1.166427
C     -1.837559    2.883190   -0.561494
H      3.330122   -5.917436   -0.226422
H      1.304970   -7.031734    0.643226
H     -0.643783   -5.691157    1.414305
H      3.455851   -3.450112   -0.352454
H     -1.475856   -3.016801    1.724239
H      0.761982    2.289725    0.159259
H      3.125292   -1.038201    0.048859
H      4.818365    1.707382   -0.450143
H     -3.493442    0.334677    0.899108
H     -4.779205    4.469028   -1.283454
H     -3.168889    6.065032   -2.329822
H     -0.736761    5.589829   -2.272864
H      0.130097    3.571050   -1.193507
