64
 xtb: 6.6.1 (8d0f1dd)
C     11.584900    1.175300   -0.811200
C     10.118400    1.348000   -0.654400
C      9.252400    0.349100   -0.449200
C      7.839400    0.544000   -0.303100
C      6.973900   -0.468700   -0.101100
C      5.546300   -0.371000    0.052700
C      4.764400   -1.478300    0.241800
C      3.359800   -1.362400    0.381200
C      2.541200   -2.475500    0.621500
C      1.178300   -2.341400    0.713900
C      0.563000   -1.085400    0.527600
C     -0.895000   -1.027000    0.540100
C     -1.581600   -1.937000    1.328000
C     -0.807100   -3.030400    1.997600
C      0.288400   -3.502400    1.040700
C     -2.976500   -1.849500    1.478800
C     -3.697400   -0.852800    0.791700
C     -3.013900   -0.010600   -0.125900
C     -1.620800   -0.121400   -0.279400
O     -0.949100    0.544700   -1.213000
C     -3.745300    0.968600   -0.905000
O     -3.159500    1.676600   -1.771700
C     -5.159300    1.132600   -0.664500
C     -5.841000    0.308800    0.270900
C     -5.120300   -0.724600    0.996800
O     -5.731800   -1.487100    1.792900
C     -7.209900    0.478900    0.494500
C     -7.921900    1.497300   -0.211000
C     -7.254200    2.288500   -1.117100
C     -5.884900    2.116800   -1.359500
O     -5.336400    2.930000   -2.263400
O     -9.226800    1.582400    0.088200
C    -10.015500    2.566100   -0.563200
O     -7.925800   -0.258200    1.344900
O     -3.554400   -2.729900    2.301400
C      1.361400    0.061000    0.418000
C      2.764900   -0.081700    0.318400
C      3.602100    1.081900    0.149200
O      3.182100    2.257400    0.114700
N      4.937200    0.858100    0.016500
O      0.798800    1.273800    0.476800
H     11.870100    0.130200   -0.729400
H     12.111800    1.749900   -0.050200
H     11.903200    1.556700   -1.781000
H      9.755500    2.366300   -0.716600
H      9.611900   -0.669300   -0.387100
H      7.501600    1.570000   -0.368300
H      7.360000   -1.476400   -0.046900
H      5.215000   -2.455200    0.283700
H      2.998400   -3.445300    0.738300
H     -0.353600   -2.651600    2.917200
H     -1.480900   -3.844100    2.261200
H     -0.172400   -3.882000    0.124800
H      0.868800   -4.306000    1.490600
H     -1.576300    1.155000   -1.683900
H     -7.751200    3.063800   -1.675300
H     -4.372500    2.705600   -2.347700
H    -11.015600    2.440400   -0.156400
H    -10.028700    2.402500   -1.642600
H     -9.646600    3.569800   -0.342400
H     -7.322200   -0.930300    1.761000
H     -4.525100   -2.533800    2.348300
H      5.509000    1.685200   -0.107200
H      1.511600    1.953700    0.357900
