60

O      4.036371   -1.418571   -3.009834
C      3.380142   -1.001051   -1.879092
C      1.982738   -1.146293   -1.806108
C      1.295469   -1.993366   -2.849210
C     -0.190292   -1.744649   -3.004122
C     -0.914650   -1.382302   -1.732461
C     -2.311797   -1.568235   -1.715774
C     -3.092789   -0.995889   -0.716766
C     -2.471846   -0.166295    0.227013
C     -3.313810    0.520040    1.251703
N     -4.668537    0.512106    1.043320
C     -5.631054    0.923829    2.035707
C     -5.666025    2.433979    2.219690
O     -6.076591    2.793754    3.455308
O     -5.434120    3.290218    1.380612
C     -6.947122    0.442723    1.456326
O     -6.633277   -0.342379    0.282881
C     -5.306435    0.014018   -0.142686
C     -5.420090    1.088866   -1.231448
C     -4.581146   -1.234055   -0.663117
O     -2.794733    1.030059    2.240994
C     -1.072081    0.016041    0.203926
O     -0.525499    1.014229    0.979554
C     -0.239494   -0.693716   -0.694561
C      1.265396   -0.695715   -0.666870
C      2.057629   -0.353423    0.458757
O      1.473768   -0.313622    1.705407
C      3.454821   -0.191606    0.363789
C      4.113117   -0.480524   -0.818653
O      5.467348   -0.363296   -1.006087
C      6.238220    0.071462    0.042379
C      5.719307    0.382022    1.295345
C      6.555762    0.816259    2.329178
C      7.926960    0.940184    2.102071
C      8.458947    0.630778    0.848431
C      7.613010    0.197839   -0.173530
O      8.121248   -0.111323   -1.405618
C      4.272787    0.243888    1.507732
O      3.759951    0.484569    2.595461
H      4.985304   -1.227602   -2.878352
H      1.763399   -1.869200   -3.833015
H      1.447321   -3.040952   -2.554966
H     -0.648261   -2.624899   -3.472225
H     -0.335182   -0.906048   -3.699122
H     -2.787458   -2.133508   -2.516050
H     -5.379479    0.447163    2.989319
H     -6.010534    3.772753    3.447342
H     -7.615293    1.255711    1.151702
H     -7.491060   -0.196303    2.158784
H     -5.936413    0.691484   -2.112652
H     -4.441461    1.467968   -1.542550
H     -6.015599    1.942111   -0.889353
H     -4.977821   -1.521266   -1.644620
H     -4.766452   -2.085987    0.004607
H     -1.130950    1.192575    1.730790
H      2.106828    0.078144    2.345016
H      6.141806    1.057670    3.306348
H      8.579868    1.278148    2.903886
H      9.528656    0.731962    0.689245
H      9.081179    0.039523   -1.400294
