94
 xtb: 6.6.1 (8d0f1dd)
C    -12.434000   -2.504300   -2.062000
C    -12.586000   -1.569400   -0.892700
C    -11.526100   -1.234400   -0.096900
C    -11.685500   -0.265500    1.062300
C    -13.135000   -0.347200    1.564900
C    -14.142700   -0.095000    0.458600
C    -13.911900   -0.995200   -0.727800
O    -14.825100   -1.204100   -1.531300
C    -10.785600   -0.640700    2.247600
C    -11.367300    1.163500    0.595800
C    -10.251000   -1.845700   -0.380300
C     -9.023500   -1.290200   -0.267800
C     -7.785700   -1.943300   -0.577000
C     -6.631400   -1.222500   -0.453600
C     -5.307300   -1.652400   -0.709000
C     -4.229200   -0.846600   -0.506200
C     -2.865700   -1.189600   -0.738600
C     -1.900000   -0.270200   -0.421300
C     -0.501700   -0.398800   -0.555500
C      0.375300    0.570700   -0.162700
C      1.773800    0.435500   -0.289600
C      2.746800    1.315900    0.105400
C      4.109800    0.959100   -0.111700
C      5.200800    1.681000    0.261800
C      6.522300    1.238900    0.008800
C      7.691100    1.847300    0.365700
C      8.923400    1.205600    0.007400
C     10.155900    1.600800    0.392500
C     11.399900    0.953100    0.052700
C     11.676400    0.494800   -1.200200
C     12.965500   -0.091600   -1.547300
O     13.243700   -0.413100   -2.704700
C     13.987500   -0.267400   -0.453200
C     13.358900   -0.300900    0.928200
C     12.430000    0.894400    1.168700
C     13.215800    2.213800    1.185400
C     11.759700    0.688700    2.534500
C     10.732900    0.634700   -2.361400
C      7.756900    3.144200    1.113300
C      2.449900    2.629100    0.764800
C     -2.558400   -2.541900   -1.308400
C     -7.823100   -3.378500   -1.005200
H    -13.372100   -2.525700   -2.613300
H    -12.212800   -3.517000   -1.726300
H    -11.641000   -2.176600   -2.730600
H    -13.284000    0.376600    2.367900
H    -13.305900   -1.344900    1.976800
H    -14.080400    0.935900    0.100500
H    -15.166400   -0.245600    0.808100
H     -9.733300   -0.513200    2.023200
H    -10.950600   -1.677500    2.531700
H    -11.031700   -0.009100    3.098100
H    -11.658900    1.875700    1.364000
H    -11.898000    1.399500   -0.323000
H    -10.305200    1.283600    0.407200
H    -10.316300   -2.848700   -0.776500
H     -8.931100   -0.255500    0.029200
H     -6.723600   -0.195100   -0.119300
H     -5.153100   -2.654800   -1.075800
H     -4.410100    0.151300   -0.124400
H     -2.239400    0.672200   -0.005900
H     -0.094800   -1.305700   -0.980500
H     -0.029700    1.474200    0.271100
H      2.108100   -0.488100   -0.749200
H      4.279200    0.014500   -0.615400
H      5.061400    2.618100    0.777300
H      6.599200    0.298800   -0.525900
H      8.827400    0.299000   -0.572900
H     10.247100    2.438900    1.067900
H     14.691100    0.565200   -0.539400
H     14.553700   -1.178800   -0.656900
H     14.143100   -0.316200    1.687000
H     12.775300   -1.219300    1.029600
H     12.561700    3.040300    1.449800
H     14.015700    2.160100    1.919600
H     13.645700    2.425400    0.209900
H     11.074900   -0.155400    2.499400
H     12.521100    0.482900    3.283200
H     11.207700    1.567400    2.852100
H     11.319700    0.750900   -3.271900
H     10.070800    1.487200   -2.239000
H     10.131700   -0.265700   -2.481900
H      8.151500    2.976700    2.114900
H      8.418100    3.838600    0.598500
H      6.780600    3.605900    1.205200
H      1.384300    2.817900    0.825600
H      2.910700    3.440400    0.203800
H      2.858100    2.639100    1.774500
H     -2.882600   -3.319400   -0.617900
H     -3.089200   -2.679500   -2.249000
H     -1.498000   -2.670700   -1.492700
H     -6.828400   -3.778200   -1.164400
H     -8.385300   -3.477200   -1.932900
H     -8.316500   -3.980800   -0.244300
