64

C      9.393010   -0.583345    1.178989
C      7.995598   -0.123677    0.791596
C      7.226784    0.404817    2.003307
C      5.857850    0.991073    1.646786
C      4.867932   -0.050265    1.120115
C      3.489517    0.569189    0.880160
C      2.498126   -0.466928    0.347822
C      1.123976    0.129103    0.088710
O      0.868870    1.303401    0.357296
C      0.078001   -0.741326   -0.501159
C     -1.180554   -0.426610   -0.823958
C     -1.905671    0.809637   -0.659254
C     -3.252551    0.841927   -0.656558
C     -3.950858    2.114540   -0.538060
C     -5.293712    2.135181   -0.625256
O     -6.044481    0.968999   -0.772663
C     -5.385585   -0.245760   -0.806075
C     -4.048621   -0.394312   -0.743358
C     -3.328392   -1.756180   -0.736837
C     -1.913351   -1.591197   -1.413468
O     -1.010837   -2.672792   -1.165046
C      0.193827   -2.182037   -0.760000
O      1.188786   -2.859974   -0.584924
C     -2.005222   -1.460362   -2.948500
C     -3.272645   -2.241482    0.731207
C     -2.628110   -3.600345    0.954496
O     -2.861140   -4.580347    0.251122
C     -1.719733   -3.719312    2.152079
O     -4.153812   -2.678357   -1.465465
C     -6.111007    3.323374   -0.507536
C     -5.793904    4.539378   -0.980392
C     -6.679377    5.736058   -0.848910
H      9.349839   -1.387382    1.920555
H      9.925166   -0.959935    0.299838
H      9.975476    0.242344    1.600166
H      7.462682   -0.967351    0.340317
H      8.073948    0.659614    0.028780
H      7.818865    1.191760    2.487183
H      7.103325   -0.396324    2.742386
H      5.982289    1.791628    0.907339
H      5.440813    1.456630    2.548587
H      5.235844   -0.478015    0.180824
H      4.780536   -0.872215    1.840905
H      3.576718    1.397575    0.166072
H      3.108963    0.996976    1.816094
H      2.880577   -0.877195   -0.593256
H      2.392033   -1.272780    1.082171
H     -1.332812    1.726116   -0.528956
H     -3.378595    3.023549   -0.385754
H     -6.097845   -1.059126   -0.862572
H     -2.681617   -0.659720   -3.263900
H     -2.345429   -2.400771   -3.397048
H     -1.020833   -1.260872   -3.390275
H     -4.286485   -2.332063    1.144189
H     -2.742292   -1.509168    1.352569
H     -2.292518   -3.535290    3.063966
H     -0.901590   -2.999448    2.068349
H     -1.295583   -4.726444    2.195071
H     -4.346126   -2.310619   -2.343942
H     -7.068022    3.173131   -0.010560
H     -4.855379    4.699955   -1.505128
H     -7.610721    5.507258   -0.321655
H     -6.159651    6.524537   -0.296145
H     -6.934287    6.121575   -1.840756
