60

C      6.203068    2.289800    1.486301
C      6.934651    1.428566    0.464152
C      6.458531   -0.035647    0.450793
C      7.335883   -0.866034   -0.489432
C      5.014912   -0.150283    0.019993
C      4.046856   -0.683036    0.784661
C      2.651926   -0.805494    0.406527
C      1.726220   -1.343732    1.221772
C      0.334297   -1.463270    0.768708
C     -0.593143   -2.140311    1.477297
C     -1.988976   -2.326084    0.969239
O     -2.836741   -2.897805    1.660333
C     -2.318539   -1.846744   -0.458099
C     -1.442187   -0.701677   -0.940354
C     -0.007777   -0.806722   -0.498452
C      1.001446   -0.311305   -1.236488
O      2.329223   -0.331436   -0.862098
C     -2.172378    0.560154   -0.442568
C     -2.110745    1.667250   -1.470943
O     -1.154983    1.800894   -2.229977
O     -3.116769    2.567762   -1.497332
C     -4.340436    2.356550   -0.774743
C     -4.710236    0.872552   -0.785610
C     -3.587357    0.064000   -0.114559
O     -3.646427   -1.310631   -0.524250
O     -3.673382    0.140830    1.319592
C     -4.832002   -0.444393    1.905043
C     -4.994882    0.398356   -2.222814
C     -4.236719    3.011654    0.598030
C     -2.252587   -3.065414   -1.379424
Cl    -0.260489   -2.908541    3.000884
H      6.631407    3.297160    1.502780
H      6.294213    1.867159    2.491912
H      5.139935    2.385154    1.245678
H      6.817846    1.877283   -0.530487
H      8.006400    1.456504    0.697619
H      6.578255   -0.445089    1.462631
H      8.383491   -0.833356   -0.171053
H      7.285869   -0.495154   -1.519572
H      7.023007   -1.916237   -0.493669
H      4.776759    0.232040   -0.971529
H      4.309231   -1.056406    1.772872
H      2.011932   -1.702071    2.204737
H     -1.467117   -0.702026   -2.040798
H      0.891464    0.187031   -2.191954
H     -1.682201    0.966702    0.452991
H     -5.113274    2.903223   -1.329512
H     -5.653470    0.753690   -0.242392
H     -5.674390    0.249977    1.853309
H     -4.617800   -0.624012    2.962375
H     -5.101239   -1.396441    1.440625
H     -4.097458    0.394416   -2.848651
H     -5.737096    1.045437   -2.702799
H     -5.406535   -0.616680   -2.221578
H     -5.134525    2.828576    1.195438
H     -4.118073    4.095015    0.481736
H     -3.357955    2.676810    1.156010
H     -2.946792   -3.844748   -1.043416
H     -1.248015   -3.499912   -1.410818
H     -2.554128   -2.803855   -2.400030
