39
 xtb: 6.6.1 (8d0f1dd)
C     -4.128000   -3.059000    0.921900
O     -4.403900   -1.672200    0.933800
C     -3.363800   -0.798100    0.709600
C     -2.056800   -1.171800    0.476200
C     -1.071600   -0.197500    0.252200
C     -1.452100    1.157500    0.271100
C     -2.758700    1.533700    0.509000
C     -3.735800    0.552400    0.730900
O     -5.027700    0.926200    0.961500
O     -3.207600    2.825900    0.550700
C     -2.272300    3.865100    0.342200
C      0.300000   -0.528000   -0.008100
O      1.066600    0.571600   -0.360900
C      2.381600    0.454900   -0.662200
C      3.057300    1.608600   -1.026600
C      4.408600    1.531200   -1.349200
C      5.074000    0.308200   -1.299600
C      4.400600   -0.843200   -0.933100
C      3.030400   -0.789700   -0.607800
C      2.267300   -1.924100   -0.225900
C      0.922000   -1.785500    0.063400
O      0.191700   -2.871200    0.432700
O      5.012200   -2.054000   -0.872400
O      5.125600    2.619300   -1.720400
H     -3.749700   -3.375400   -0.053000
H     -3.408400   -3.323300    1.700200
H     -5.082900   -3.540000    1.121600
H     -1.786900   -2.210000    0.456400
H     -0.694800    1.902000    0.101700
H     -5.557900    0.121100    1.084700
H     -1.489600    3.850700    1.105500
H     -1.821900    3.797100   -0.651700
H     -2.848200    4.784200    0.423200
H      2.522500    2.543900   -1.057000
H      6.121600    0.285600   -1.554700
H      2.756300   -2.882100   -0.168000
H      0.766000   -3.653400    0.466500
H      5.946900   -1.972200   -1.114500
H      4.567400    3.411500   -1.731200
