31
 xtb: 6.6.1 (8d0f1dd)
C      4.692300   -1.565900   -0.462100
C      3.823800   -1.718900    0.786200
N      2.474200   -1.324500    0.505700
C      1.967300   -0.341800    1.138200
C      0.643500    0.112800    0.901900
C     -0.058900    1.157700    1.512900
C     -1.331000    1.207900    0.935400
C     -1.390500    0.193700   -0.021500
N     -0.200300   -0.446000   -0.023600
C     -2.468300   -0.175700   -0.890800
C     -2.535200   -1.168200   -1.855100
C     -3.814800   -1.112500   -2.426800
C     -4.494600   -0.096400   -1.803500
N     -3.676100    0.462200   -0.880900
O      0.484300    1.935700    2.490200
C     -0.350900    2.954200    3.011000
H      4.743900   -0.519700   -0.754700
H      5.696500   -1.928200   -0.261100
H      4.262600   -2.135100   -1.281000
H      3.800700   -2.775000    1.076500
H      4.258400   -1.137300    1.619500
H      2.517200    0.213900    1.914200
H     -2.115300    1.895200    1.178500
H      0.067600   -1.225200   -0.600200
H     -1.755400   -1.853700   -2.120200
H     -4.190700   -1.746100   -3.205600
H     -5.493600    0.258700   -1.956900
H     -3.915800    1.228300   -0.275400
H     -0.638800    3.660200    2.227600
H      0.244000    3.463100    3.765700
H     -1.245900    2.526800    3.470400
