66

C     11.375971    0.987660    1.413424
C      9.986365    1.171745    0.894097
C      9.142328    0.160450    0.641989
C      7.804962    0.368077    0.135510
C      6.961513   -0.640758   -0.124701
C      5.591466   -0.368098   -0.654779
O      5.208747    0.783704   -0.853345
C      4.750874   -1.588037   -0.998321
C      3.259390   -1.362792   -0.861775
C      2.532162   -1.520000    0.338527
C      1.124989   -1.327064    0.335745
C      0.439523   -0.864717   -0.807302
C      1.174153   -0.796504   -2.009434
C      2.558458   -1.007235   -2.026613
C      0.436378   -0.520565   -3.298223
C     -0.928471   -1.221706   -3.275872
C     -1.719785   -0.786477   -2.058747
C     -1.015158   -0.527487   -0.856029
C     -1.729454    0.094272    0.189629
C     -3.127158    0.266878    0.121867
C     -3.820395   -0.120320   -1.022485
C     -3.110885   -0.625751   -2.120138
O     -3.729908   -0.971363   -3.294102
C     -5.285907    0.047094   -1.089032
O     -5.894039   -0.310262   -2.096971
C     -6.027071    0.640336    0.039534
C     -5.332909    1.040867    1.178225
C     -3.870070    0.867733    1.249630
O     -3.272050    1.226896    2.262997
C     -6.039140    1.605249    2.248979
C     -7.422912    1.773296    2.189031
C     -8.127939    1.379048    1.052024
C     -7.422688    0.808963   -0.021609
O     -8.149557    0.428053   -1.124735
O     -9.482661    1.500845    0.890792
C    -10.219018    2.117241    1.938274
O     -5.437424    2.022684    3.406815
O     -1.014191    0.614254    1.243310
O      0.356842   -1.678283    1.428420
C      3.157301   -1.907162    1.632992
O      2.545401   -2.379038    2.578453
O      4.466163   -1.635992    1.742818
H     11.487548    1.506101    2.370956
H     11.625014   -0.067281    1.565673
H     12.097012    1.409843    0.706322
H      9.676764    2.200789    0.721014
H      9.464154   -0.864124    0.817773
H      7.488019    1.396337   -0.037122
H      7.233222   -1.676917    0.033608
H      5.054008   -2.462267   -0.413045
H      4.991211   -1.850544   -2.037459
H      3.094955   -0.901139   -2.969272
H      1.008402   -0.888624   -4.157964
H      0.318871    0.564167   -3.414355
H     -1.452846   -0.964871   -4.203133
H     -0.809302   -2.312251   -3.247764
H     -4.699706   -0.851374   -3.192284
H     -7.918622    2.214120    3.048154
H     -7.544549    0.043664   -1.794263
H    -10.161275    1.528533    2.859605
H    -11.269086    2.154196    1.632243
H     -9.884496    3.146627    2.103821
H     -4.469619    1.867620    3.332807
H     -1.629960    0.908329    1.946682
H      0.931072   -1.998093    2.154040
H      4.675013   -1.848576    2.678185
