35

C      4.619327   -1.676349   -0.429114
O      3.668098   -0.627413   -0.252198
C      3.244400   -0.083695   -1.418268
O      3.646531   -0.315560   -2.544407
C      2.270684    0.967141   -1.098905
C      0.992232    0.692850   -0.598047
C      0.145883    1.756789   -0.273074
C      0.560024    3.079330   -0.468822
C      1.822536    3.332395   -0.992446
C      2.681639    2.289338   -1.311080
O      2.264316    4.602965   -1.204630
O     -1.118595    1.607339    0.245196
C     -1.582776    0.338197    0.478685
C     -2.855679    0.238496    1.047400
C     -3.422511   -1.017488    1.318067
C     -2.696916   -2.173252    1.002492
C     -1.429460   -2.070550    0.432761
C     -0.869001   -0.815405    0.174294
C      0.464909   -0.672600   -0.423613
O      1.075227   -1.677152   -0.768328
O     -0.788152   -3.245754    0.149040
C     -4.795438   -1.110666    1.926358
O     -5.762735   -0.595060    1.022970
H      4.201839   -2.476439   -1.048802
H      5.540865   -1.284679   -0.870928
H      4.855266   -2.089685    0.555375
H     -0.112906    3.892779   -0.212574
H      3.668799    2.502913   -1.715678
H      1.567050    5.235508   -0.962444
H     -3.415300    1.143827    1.279140
H     -3.110798   -3.161140    1.195089
H      0.073265   -3.025714   -0.275131
H     -5.061528   -2.147307    2.157097
H     -4.839601   -0.538565    2.858750
H     -5.501494   -0.875397    0.128806
