38

O      2.270374    2.438812   -2.012605
C      1.144366    2.512783   -1.555361
C      0.379635    1.439371   -0.877007
C     -0.817721    1.949013   -0.539127
C     -1.913550    1.349594    0.148838
C     -2.720125    2.031700    1.037670
N     -3.690168    1.178446    1.482418
C     -3.542007   -0.054977    0.893996
C     -2.413041    0.007526    0.066586
C     -2.065797   -1.168392   -0.642097
O     -0.971285   -1.264735   -1.488738
C      0.227589   -1.027951   -0.959857
C      0.902768    0.137198   -0.661376
C      2.179478   -0.227242   -0.128427
C      3.295395    0.484338    0.365804
C      4.417416   -0.213707    0.831423
C      4.430471   -1.602711    0.809778
O      5.513684   -2.304209    1.257638
C      3.349020   -2.339232    0.331836
C      2.238656   -1.623414   -0.131297
N      1.053718   -2.077387   -0.658845
C     -2.861265   -2.318775   -0.539762
C     -3.974928   -2.335840    0.292412
C     -4.329801   -1.206203    1.031820
N      0.365638    3.609801   -1.581091
C     -0.822104    3.364830   -0.996397
O     -1.722795    4.176493   -0.875977
H     -2.701293    3.059307    1.379614
H     -4.428844    1.422404    2.128040
H      3.296800    1.570600    0.378099
H      5.267506    0.350940    1.201468
H      6.198045   -1.671171    1.529754
H      3.377533   -3.423351    0.319566
H      0.812713   -3.048290   -0.791164
H     -2.599464   -3.206594   -1.108928
H     -4.577245   -3.238189    0.368695
H     -5.200804   -1.221063    1.680001
H      0.631436    4.490277   -1.987400
