25
 xtb: 6.6.1 (8d0f1dd)
C      3.049600    1.727800   -0.977600
O      2.947300    0.418200   -0.445700
C      1.701100    0.001900   -0.101500
C      0.482600    0.681800   -0.193000
C     -0.504100   -0.176300    0.288000
N      0.090500   -1.333600    0.658200
C     -1.916600    0.037900    0.408500
C     -2.911400   -0.799500    0.884200
C     -4.133800   -0.115700    0.792000
C     -3.845500    1.115800    0.263300
Br    -5.000400    2.556300   -0.137200
N     -2.511800    1.210800    0.031700
C      1.444100   -1.267600    0.436200
C      2.338600   -2.343300    0.730000
N      3.599300   -2.391600    0.563100
H      2.470700    1.818500   -1.899900
H      4.105700    1.875700   -1.189100
H      2.709900    2.469700   -0.250700
H      0.333800    1.675300   -0.563200
H     -0.383700   -2.134000    1.042000
H     -2.788600   -1.794200    1.259600
H     -5.101700   -0.475100    1.074800
H     -2.037800    2.011000   -0.354400
H      1.882600   -3.237200    1.150100
H      3.979500   -1.532600    0.166900
