31
 xtb: 6.6.1 (8d0f1dd)
C      2.283900    2.160600    0.372500
C      1.240700    1.267800    0.494900
C      1.436300   -0.054300    0.100700
C      2.714200   -0.459700   -0.360800
C      3.770400    0.432300   -0.486300
C      3.517400    1.737400   -0.120900
Br     4.935300    3.026200   -0.269600
N      2.672800   -1.804200   -0.599300
C      1.443100   -2.272600   -0.295600
C      0.623000   -1.237900    0.119100
C     -0.737300   -1.389700    0.536800
C     -1.820800   -0.555100    0.462900
C     -2.945500   -1.204600    1.177600
O     -4.068200   -0.778200    1.372900
N     -2.486100   -2.428700    1.601300
C     -1.165800   -2.623800    1.240200
O     -0.526000   -3.622100    1.490000
C     -2.026500    0.665000   -0.246700
C     -1.308800    1.308800   -1.247200
N     -1.974100    2.403800   -1.666500
C     -3.078000    2.447500   -0.954000
N     -3.161200    1.424000   -0.087700
H      2.154000    3.191500    0.660600
H      0.295900    1.592800    0.896100
H      4.741100    0.124700   -0.839600
H      3.440400   -2.361200   -0.940900
H      1.189700   -3.308500   -0.403900
H     -3.041900   -3.100200    2.112500
H     -0.375500    1.026400   -1.687200
H     -3.824700    3.209200   -1.048100
H     -3.917900    1.182900    0.538400
