36
 xtb: 6.6.1 (8d0f1dd)
O     -2.394700    0.614500   -1.489500
C     -1.690000    0.018800   -0.682200
C     -2.145600   -1.140600    0.089000
C     -1.222500   -1.849300    0.876500
C     -1.576200   -2.973700    1.609700
C     -2.890800   -3.414300    1.577500
O     -3.317200   -4.485500    2.257100
C     -3.825800   -2.714400    0.805400
C     -3.484800   -1.601400    0.066400
C     -4.536200   -0.911500   -0.733800
O      0.082000   -1.484400    0.967400
C      0.504000   -0.382300    0.357500
C     -0.285700    0.408200   -0.425100
C      0.256200    1.638000   -1.021800
O     -0.463400    2.410800   -1.672600
C      1.938900   -0.113600    0.602100
O      2.600400   -0.887600    1.303100
C      2.484800    1.067800   -0.023500
C      1.664300    1.921900   -0.806900
C      2.237900    3.072600   -1.381600
C      3.602700    3.352200   -1.187100
C      4.403700    2.529200   -0.434500
O      5.694800    2.807600   -0.256900
C      3.840000    1.361200    0.167700
O      4.673800    0.617800    0.889000
O      1.552100    3.934400   -2.118400
H     -0.813100   -3.469300    2.187700
H     -2.602300   -4.902700    2.765400
H     -4.841000   -3.077700    0.801100
H     -4.297200   -0.968400   -1.794500
H     -4.572600    0.147500   -0.486200
H     -5.507900   -1.362000   -0.556900
H      4.015700    4.236900   -1.643000
H      6.116300    2.128100    0.303300
H      4.193700   -0.162200    1.267400
H      0.605500    3.633500   -2.178700
