70
 xtb: 6.6.1 (8d0f1dd)
C     -1.236100    2.704800    2.076500
C     -2.520800    2.772100    1.252500
C     -2.683100    1.507100    0.374900
C     -1.562400    1.427200   -0.622500
C     -0.435100    0.589500   -0.413800
C     -0.456200   -0.575000    0.416400
C     -1.614000   -1.369800    0.626000
C     -1.652400   -2.294900    1.664200
C     -0.495500   -2.506300    2.464300
C      0.725000   -1.985200    2.012400
C      0.764500   -1.041100    0.961700
C      2.006800   -0.569400    0.455400
C      2.025700    0.494900   -0.454100
C      0.801100    1.009400   -0.961300
C      0.794900    1.951600   -2.014500
C      2.047700    2.345200   -2.642000
O      2.081000    3.016700   -3.704200
C      3.235600    2.032600   -1.918400
C      3.226900    1.231100   -0.814500
O      4.242200    1.145600    0.053100
C      5.425300    1.890100   -0.182500
C     -0.406100    2.515900   -2.466300
C     -1.568300    2.350700   -1.663000
O     -2.724600    3.047200   -1.809100
C     -2.858600    4.103200   -2.744900
O     -0.443800    3.269600   -3.565500
C      3.182000   -1.346300    0.816000
C      3.161500   -2.152300    1.916500
C      1.962900   -2.426100    2.637900
O      1.972200   -3.103100    3.697200
O      4.202200   -1.290500   -0.048400
C      5.362000   -2.069800    0.190300
O     -0.559900   -3.261600    3.561100
O     -2.834500   -2.946100    1.813300
C     -3.000000   -4.012300    2.732300
C     -2.740400   -1.404200   -0.367600
C     -2.631200   -2.672600   -1.248300
C     -1.349000   -2.652900   -2.078900
O     -3.775600   -2.801500   -2.063000
O     -3.655200    2.945600    2.072900
H     -1.192200    3.552600    2.755500
H     -1.203800    1.785200    2.657700
H     -0.368100    2.731400    1.424100
H     -2.507400    3.662100    0.616600
H     -2.682200    0.647100    1.039000
H     -3.645300    1.581300   -0.132200
H      4.132700    2.523200   -2.259400
H      6.061500    1.693900    0.677100
H      5.207600    2.958500   -0.247500
H      5.921400    1.557200   -1.096200
H     -3.853700    4.503500   -2.560800
H     -2.111800    4.881400   -2.580000
H     -2.785600    3.743200   -3.771700
H      0.495400    3.342000   -3.917500
H      4.040700   -2.675000    2.256500
H      6.009500   -1.886100   -0.663600
H      5.860900   -1.757000    1.109600
H      5.113700   -3.131900    0.246600
H      0.376700   -3.370600    3.911100
H     -2.908100   -3.672900    3.764500
H     -2.281900   -4.813200    2.549000
H     -4.009700   -4.374400    2.548100
H     -2.708400   -0.543600   -1.030000
H     -3.702700   -1.441700    0.143400
H     -2.648300   -3.563700   -0.614100
H     -0.479400   -2.710000   -1.430600
H     -1.339200   -3.502500   -2.757000
H     -1.286500   -1.735700   -2.661400
H     -3.809200   -2.056800   -2.680500
H     -3.713100    2.203400    2.691500
