30

O     -1.002771   -2.397774   -0.262413
C      0.117478   -1.948355   -0.049841
N      1.148722   -2.801931    0.232794
C      2.487832   -2.528672    0.218988
O      3.310036   -3.400075    0.482959
C      0.482102   -0.480819   -0.107877
C      1.907271   -0.224782   -0.335348
C      2.881159   -1.141392   -0.180880
O      4.233385   -0.933595   -0.359113
C      4.687475    0.381962   -0.649031
C     -0.482102    0.480821   -0.003825
C     -1.907270    0.224783    0.223650
C     -2.881160    1.141392    0.069185
C     -2.487835    2.528671   -0.330686
N     -1.148725    2.801931   -0.344498
C     -0.117479    1.948357   -0.061865
O      1.002769    2.397778    0.150702
O     -3.310041    3.400075   -0.594651
O     -4.233385    0.933593    0.247421
C     -4.687471   -0.381964    0.537347
H      0.906575   -3.770986    0.378220
H      2.191866    0.767290   -0.658107
H      5.779460    0.355186   -0.710576
H      4.304775    0.722798   -1.616359
H      4.412017    1.077920    0.150042
H     -2.191863   -0.767289    0.546410
H     -0.906579    3.770986   -0.489927
H     -5.779457   -0.355191    0.598887
H     -4.304774   -0.722789    1.504678
H     -4.412009   -1.077926   -0.261721
