30
 xtb: 6.6.1 (8d0f1dd)
O     -0.984000   -2.384900    0.363300
C      0.135600   -1.923800    0.199400
N      1.189200   -2.809900    0.234500
C      2.529100   -2.574500    0.071300
O      3.342100   -3.479500    0.128700
C      0.489200   -0.503900   -0.034400
C      1.868200   -0.219800   -0.212400
C      2.856300   -1.158500   -0.172600
O      4.160000   -0.938500   -0.335500
C      4.617100    0.385100   -0.578000
C     -0.489200    0.503900   -0.077200
C     -1.868200    0.219800    0.100700
C     -2.856300    1.158500    0.060900
C     -2.529100    2.574500   -0.182900
N     -1.189200    2.809900   -0.346100
C     -0.135600    1.923800   -0.311100
O      0.984000    2.384900   -0.475000
O     -3.342100    3.479500   -0.240300
O     -4.160000    0.938500    0.223700
C     -4.617100   -0.385100    0.466200
H      0.923200   -3.778900    0.401900
H      2.134700    0.807900   -0.388200
H      5.696100    0.298400   -0.674900
H      4.186400    0.782000   -1.499000
H      4.365000    1.041800    0.256600
H     -2.134700   -0.807900    0.276500
H     -0.923200    3.778900   -0.513500
H     -5.696100   -0.298400    0.563100
H     -4.186400   -0.782000    1.387200
H     -4.365100   -1.041800   -0.368400
