34
 xtb: 6.6.1 (8d0f1dd)
C      6.296800    0.412600    0.286800
C      4.822800    0.353100    0.542000
O      4.282000    0.675400    1.580500
N      4.110300   -0.142900   -0.531100
C      2.766300   -0.379100   -0.605700
C      1.778500    0.329000    0.030000
C      0.400700   -0.068600   -0.101100
N     -0.533000    0.599700    0.515500
C     -1.821200    0.196400    0.375100
C     -2.148700   -0.927700   -0.419000
C     -3.471700   -1.335300   -0.555700
C     -4.458000   -0.626800    0.093400
C     -4.156400    0.494100    0.881600
C     -2.848200    0.901800    1.019100
C     -5.278200    1.224700    1.581200
O     -6.481700    1.237300    0.849200
O     -1.175700   -1.617400   -1.062600
C      0.102800   -1.217700   -0.942200
C      1.073800   -1.884200   -1.627500
C      2.441000   -1.506300   -1.523000
O      3.367000   -2.056100   -2.136700
C      2.013000    1.524600    0.745700
N      2.119600    2.557800    1.235200
H      6.690100   -0.593400    0.161700
H      6.493400    0.976700   -0.620900
H      6.787000    0.887400    1.131000
H      4.619700   -0.671800   -1.244200
H     -3.695600   -2.195900   -1.164200
H     -5.491100   -0.924700    0.001100
H     -2.574200    1.757000    1.614600
H     -4.959800    2.241500    1.837400
H     -5.512000    0.698400    2.512900
H     -6.377000    1.796600    0.067300
H      0.817900   -2.716100   -2.264000
