51
 xtb: 6.6.1 (8d0f1dd)
C     -2.296300   -2.104300    2.162600
C     -2.909700   -0.891800    1.461300
C     -3.610500   -1.264100    0.139300
N     -4.513700   -0.186400   -0.256500
C     -2.594600   -1.477900   -1.004000
O     -1.917800   -2.691700   -0.792700
C     -1.660200   -0.258200   -1.094000
O     -2.339000    0.875100   -1.547600
C     -1.006600   -0.053500    0.297500
N     -0.117300    1.082700    0.306500
C     -0.531200    2.386900    0.527500
C      0.589000    3.237700    0.577600
C      1.769400    2.422600    0.396500
C      1.244700    1.043200    0.177200
C      2.101700    0.014800   -0.166900
N      3.457900    0.210000   -0.094600
C      4.144600   -0.878000   -0.549000
C      5.512200   -1.096200   -0.637600
C      5.941400   -2.314500   -1.132200
C      5.026000   -3.290500   -1.526600
Cl     5.627700   -4.803600   -2.140900
C      3.660900   -3.090900   -1.446900
C      3.227700   -1.867300   -0.952300
C      1.888000   -1.344000   -0.744500
O      0.825600   -1.885300   -1.050000
O      2.951000    2.765400    0.404100
C      0.464700    4.603600    0.799100
C     -0.812600    5.102400    0.960600
Cl    -1.034800    6.805500    1.227300
C     -1.930300    4.271600    0.915800
C     -1.803900    2.910000    0.704500
O     -1.975800    0.168500    1.290500
H     -3.088800   -2.738900    2.546500
H     -1.683000   -1.763100    2.992400
H     -1.689900   -2.688600    1.477400
H     -3.650700   -0.439600    2.131300
H     -4.123600   -2.226200    0.300200
H     -5.142700    0.040100    0.505800
H     -5.077400   -0.480400   -1.046700
H     -3.152300   -1.531400   -1.956200
H     -1.056100   -2.672200   -1.235900
H     -0.856800   -0.455800   -1.813700
H     -3.213700    0.889100   -1.096500
H     -0.415500   -0.947300    0.532200
H      3.847600    1.107000    0.179000
H      6.219700   -0.343600   -0.333300
H      6.995600   -2.521400   -1.217500
H      2.954200   -3.845100   -1.752500
H      1.338200    5.233800    0.836500
H     -2.909100    4.702100    1.050200
H     -2.673800    2.279400    0.689400
