34
 xtb: 6.6.1 (8d0f1dd)
C      3.872000   -0.745500   -0.668300
C      2.793100   -0.023900   -0.155500
C      3.015700    1.136700    0.623000
C      4.291400    1.600100    0.907000
C      5.355500    0.880100    0.396300
C      5.140500   -0.292000   -0.392500
O      6.269500   -0.899000   -0.832500
O      6.611000    1.286200    0.643100
O      1.844600    1.680000    1.016200
C      0.860000    0.900700    0.512000
C      1.378100   -0.160700   -0.216100
C      0.553300   -1.169300   -0.879500
O      0.998400   -2.111300   -1.527300
C     -0.860000   -0.900700   -0.666100
C     -1.378100    0.160700    0.062000
C     -0.553300    1.169300    0.725400
O     -0.998400    2.111300    1.373200
C     -2.793100    0.023900    0.001400
C     -3.872000    0.745500    0.514200
C     -5.140500    0.292000    0.238400
C     -5.355500   -0.880100   -0.550400
C     -4.291400   -1.600100   -1.061100
C     -3.015700   -1.136700   -0.777100
O     -1.844600   -1.680000   -1.170300
O     -6.611000   -1.286200   -0.797200
O     -6.269500    0.899000    0.678400
H      3.691600   -1.628100   -1.260700
H      4.463700    2.482000    1.498400
H      6.065300   -1.680800   -1.367200
H      7.242200    0.677700    0.216200
H     -3.691600    1.628100    1.106600
H     -4.463700   -2.482000   -1.652600
H     -7.242200   -0.677700   -0.370300
H     -6.065300    1.680800    1.213100
