21

O      2.132675    1.777159   -0.310430
C      1.520986    0.713809   -0.383736
C      2.177185   -0.471708   -0.987229
O      3.471315   -0.323762   -1.448448
C      1.544009   -1.640498   -1.083073
C      0.165667   -1.808742   -0.594976
O     -0.404581   -2.890465   -0.689830
C      0.142281    0.577713    0.113929
C     -0.517333   -0.649774    0.011182
C     -1.830251   -0.769890    0.487882
O     -2.547689   -1.933788    0.426326
C     -2.478046    0.322348    1.060746
C     -1.818587    1.546461    1.162560
C     -0.514121    1.673180    0.691091
O      0.061298    2.907125    0.828561
H      3.713007    0.610143   -1.268838
H      2.017962   -2.510115   -1.522879
H     -1.991200   -2.628083    0.005755
H     -3.496657    0.219290    1.427695
H     -2.321644    2.400961    1.609274
H      0.973724    2.878638    0.464441
