21
 xtb: 6.6.1 (8d0f1dd)
O      2.164000    1.777600   -0.324200
C      1.505900    0.723800   -0.376200
C      2.154600   -0.464700   -0.976000
O      3.400300   -0.287400   -1.406400
C      1.506200   -1.646300   -1.071300
C      0.155600   -1.821100   -0.597400
O     -0.417100   -2.922000   -0.699600
C      0.157400    0.581000    0.107500
C     -0.511900   -0.666100    0.003200
C     -1.822200   -0.787500    0.480800
O     -2.519100   -1.916300    0.423700
C     -2.458300    0.337600    1.059400
C     -1.816700    1.535600    1.158600
C     -0.494300    1.686600    0.686000
O      0.069700    2.878600    0.814300
H      3.666100    0.643100   -1.234900
H      1.992100   -2.503500   -1.511400
H     -1.962700   -2.621200   -0.002300
H     -3.467200    0.207100    1.416000
H     -2.292700    2.397500    1.596700
H      0.990400    2.867500    0.453500
