62
 xtb: 6.6.1 (8d0f1dd)
C     -4.028000   -0.924700    0.737400
N     -4.721600    0.230900    0.193300
C     -3.979700    0.798400   -0.916200
C     -5.105800    1.228300    1.191800
C     -6.340500    0.756400    1.976200
O     -7.443000    0.560500    1.133600
C     -3.951600    1.548400    2.136300
O     -3.773700    1.024700    3.213900
O     -3.144400    2.444400    1.590800
C     -1.917100    2.798500    2.264100
C     -0.776800    2.607800    1.308200
C     -0.265500    3.636800    0.565700
C      0.769100    3.453600   -0.367200
C      1.320600    2.212800   -0.584500
C      0.822800    1.101100    0.175600
N      1.358200   -0.100400   -0.001700
C      0.879300   -1.132500    0.692500
C      1.404700   -2.450400    0.532300
C      0.838400   -3.476600    1.252500
C     -0.223000   -3.272800    2.151700
C     -0.736700   -2.025300    2.340900
C     -0.203100   -0.931600    1.616000
N     -0.723200    0.278000    1.811500
C     -0.240800    1.305400    1.118100
C      2.534900   -2.807400   -0.362800
O      2.805400   -4.008400   -0.550900
N      3.231900   -1.805000   -0.903800
C      4.373100   -1.874200   -1.714800
C      5.009900   -2.932600   -2.298400
C      6.202100   -2.488300   -3.089800
C      6.233800   -0.970500   -2.930500
C      5.069200   -0.640500   -2.024500
O      4.776200    0.476400   -1.619100
O      4.732500   -4.218000   -2.258100
O      2.293600    1.917200   -1.455700
C      2.900900    2.968400   -2.186200
H     -4.019900   -1.706400   -0.020700
H     -2.990400   -0.701900    1.022100
H     -4.548500   -1.293700    1.616800
H     -2.992800    1.183100   -0.620300
H     -3.837800    0.020300   -1.664100
H     -4.553200    1.610500   -1.357200
H     -5.369400    2.141900    0.650300
H     -6.105900   -0.156700    2.537100
H     -6.629000    1.527100    2.694400
H     -7.165800   -0.021100    0.408900
H     -2.011600    3.844400    2.560900
H     -1.811400    2.152500    3.140100
H     -0.667600    4.629900    0.692500
H      1.117700    4.310900   -0.917900
H      1.239900   -4.469600    1.113300
H     -0.620800   -4.116800    2.691700
H     -1.546100   -1.825200    3.025100
H      2.900000   -0.849600   -0.724200
H      7.098400   -2.970800   -2.699300
H      6.092300   -2.804600   -4.127200
H      6.110300   -0.446500   -3.877700
H      7.157600   -0.610200   -2.479800
H      3.959100   -4.377700   -1.632100
H      3.727000    2.497200   -2.712800
H      3.289900    3.736100   -1.514800
H      2.195900    3.407800   -2.895500
