26

C      3.540229   -1.191716   -0.165403
C      2.247587   -1.713563   -0.229869
C      1.115349   -0.866566   -0.234129
C      1.304528    0.530191   -0.171834
C      2.622934    1.029988   -0.107381
C      3.727851    0.184431   -0.103987
O      2.878471    2.375430   -0.044901
N      0.189471    1.391762   -0.174931
C     -1.115349    0.866567   -0.239947
C     -2.247587    1.713563   -0.244212
C     -3.540229    1.191716   -0.308682
C     -3.727851   -0.184431   -0.370098
C     -2.622934   -1.029988   -0.366698
C     -1.304529   -0.530191   -0.302243
N     -0.189471   -1.391762   -0.299143
O     -0.373678   -2.666942   -0.356402
O     -2.878471   -2.375430   -0.429175
O      0.373678    2.666942   -0.117670
H      4.399203   -1.859442   -0.163179
H      2.114448   -2.795068   -0.277653
H      4.730901    0.601671   -0.053471
H      2.002767    2.841497   -0.055769
H     -2.114449    2.795068   -0.196429
H     -4.399203    1.859442   -0.310910
H     -4.730900   -0.601671   -0.420615
H     -2.002767   -2.841497   -0.418309
