42
 xtb: 6.6.1 (8d0f1dd)
C     -4.376300    1.901400   -2.991700
N     -3.259000    2.159800   -2.103100
C     -3.158400    1.265000   -0.974400
C     -2.895000   -0.221500   -1.324500
C     -2.651500   -1.005500   -0.088400
C     -3.590500   -1.711200    0.645400
N     -2.996300   -2.260700    1.723500
C     -1.680200   -1.933500    1.730900
C     -1.425500   -1.139000    0.605900
C     -0.104100   -0.606100    0.283600
O      0.121400    0.063700   -0.723900
C      0.905800   -0.971800    1.276700
C      0.604000   -1.798700    2.368300
C     -0.694100   -2.342400    2.701800
O     -0.919400   -3.065100    3.682600
N      1.746500   -2.016800    3.064600
C      2.766900   -1.376700    2.467100
C      2.298300   -0.700000    1.347500
C      3.131100    0.117700    0.473400
C      2.687300    1.338600   -0.026900
C      3.501500    2.112100   -0.829700
C      4.783000    1.678800   -1.152900
C      5.238900    0.461600   -0.652000
C      4.423000   -0.302900    0.153700
O      5.620400    2.400700   -1.942400
H     -4.318200    0.939700   -3.518500
H     -4.416900    2.697300   -3.732900
H     -5.295000    1.922600   -2.406500
H     -2.389500    2.143300   -2.626700
H     -4.086000    1.340300   -0.399900
H     -2.334500    1.620400   -0.350000
H     -2.010300   -0.269900   -1.963000
H     -3.753600   -0.629400   -1.858600
H     -4.633900   -1.848800    0.444200
H     -3.439300   -2.833500    2.427300
H      1.793600   -2.579500    3.902000
H      3.762300   -1.401600    2.862600
H      1.696800    1.688300    0.217000
H      3.138300    3.056900   -1.207700
H      6.234200    0.136300   -0.910500
H      4.781300   -1.250400    0.525500
H      5.192900    3.220400   -2.233700
