34

C     -5.465268   -0.361199   -0.693575
C     -4.071802    0.093651   -0.372308
C     -2.981745   -0.764357   -0.564644
C     -1.683378   -0.348291   -0.234186
C     -1.465444    0.919514    0.298951
C     -0.095822    1.343285    0.641993
C      1.044900    0.430731    0.422794
C      0.819518   -0.838029   -0.110043
C      1.904468   -1.700319   -0.315749
O      1.769645   -2.961544   -0.834025
C      3.204205   -1.308053    0.004231
C      3.442166   -0.041015    0.537917
O      4.676552    0.441081    0.885391
C      5.796653   -0.410832    0.687951
C      2.355388    0.826403    0.745597
O      2.627255    2.067051    1.273244
C     -0.550826   -1.265992   -0.453349
O     -0.733836   -2.386597   -0.920216
O      0.092805    2.463701    1.113201
C     -2.557498    1.771178    0.504744
O     -2.439052    3.029844    1.029454
C     -3.849452    1.361216    0.177363
H     -5.462345   -1.063985   -1.533368
H     -5.908490   -0.852383    0.178067
H     -6.096105    0.486243   -0.981790
H     -3.144435   -1.760943   -0.974665
H      0.815985   -3.123990   -1.018442
H      4.007011   -2.015952   -0.175801
H      6.689879    0.129771    1.015542
H      5.925352   -0.654499   -0.371759
H      5.714987   -1.317644    1.296183
H      1.790408    2.569446    1.368123
H     -1.489642    3.202543    1.215749
H     -4.682036    2.039964    0.353856
