62

C      0.670257    0.134596   -0.401243
C     -0.747754    0.072873   -0.247399
C     -1.531059    0.757636    0.592982
C     -2.956919    0.395363    0.432207
N     -3.749791    1.009085    1.245931
C     -2.885117    1.846476    2.008066
C     -1.520143    1.735016    1.652726
C     -0.538087    2.470143    2.284009
C     -0.938367    3.341027    3.301782
C     -2.293589    3.458300    3.664467
C     -3.278394    2.707263    3.014837
C     -3.021320   -0.596545   -0.633666
C     -1.620442   -0.811340   -1.077491
O     -1.242009   -1.571087   -1.948895
C     -4.060915   -1.228014   -1.191117
C     -5.475520   -1.069751   -0.838698
C     -5.936246   -1.192277    0.478136
C     -7.298276   -1.070602    0.769933
C     -8.201708   -0.842739   -0.261886
C     -7.766426   -0.738874   -1.576457
C     -6.405107   -0.856678   -1.865601
O     -9.537728   -0.717668   -0.022311
C      1.566459   -0.855244   -0.325102
C      2.945241   -0.365036   -0.546155
N      3.850178   -1.281182   -0.450255
C      3.114539   -2.467626   -0.165805
C      1.716574   -2.267736   -0.078443
C      0.845530   -3.303323    0.190257
C      1.394390   -4.575366    0.377699
C      2.784050   -4.784925    0.294906
C      3.654923   -3.725546    0.020691
C      2.847019    1.066654   -0.800566
C      1.402324    1.399346   -0.712771
O      0.898772    2.497195   -0.857377
C      3.782697    1.979552   -1.085842
C      5.224953    1.747642   -1.214028
C      5.890425    2.252789   -2.339210
C      7.269945    2.086842   -2.480918
C      7.987771    1.423868   -1.494213
C      7.349883    0.929696   -0.362102
C      5.969386    1.100188   -0.220089
O      9.331322    1.279547   -1.673195
H      0.505751    2.396214    2.003702
H     -0.193871    3.943896    3.818388
H     -2.579392    4.146699    4.457063
H     -4.324525    2.796371    3.285829
H     -3.876694   -1.917673   -2.014733
H     -5.242367   -1.377016    1.294687
H     -7.627683   -1.156390    1.800305
H     -8.482672   -0.564811   -2.374225
H     -6.079237   -0.772449   -2.899925
H     -9.684337   -0.767130    0.936480
H     -0.226220   -3.154575    0.243621
H      0.739067   -5.419560    0.583813
H      3.185428   -5.785639    0.440624
H      4.725755   -3.880867   -0.049508
H      3.473379    3.007061   -1.276644
H      5.341649    2.773742   -3.120602
H      7.780561    2.471984   -3.358826
H      7.901249    0.412637    0.416484
H      5.485482    0.714078    0.673811
H      9.686959    0.763890   -0.931051
