42

O     -4.980672    3.836353   -0.404577
C     -3.954524    2.939488   -0.307972
C     -4.291204    1.584982   -0.258226
O     -5.605939    1.217879   -0.307940
C     -3.296786    0.617839   -0.159510
O     -3.664503   -0.715008   -0.115754
C     -2.624579    3.346646   -0.261753
C     -1.621898    2.372667   -0.162471
C     -0.195064    2.772601   -0.118291
O      0.734965    1.730768   -0.009923
O      0.162102    3.937782   -0.181408
C     -1.953717    1.015706   -0.109813
C     -0.927884    0.005846   -0.006944
C      0.410870    0.351651    0.031923
C      1.416053   -0.623101    0.127074
C      2.876564   -0.409454    0.167549
C      3.525990    0.739730   -0.334479
C      4.913744    0.858665   -0.254499
O      5.576571    1.958535   -0.720753
C      5.679308   -0.156123    0.305747
O      7.034506   -0.037665    0.378648
C      5.079630   -1.302192    0.793556
C      3.689753   -1.426740    0.721280
O      1.035591   -2.004712    0.245669
C     -0.344365   -2.325242    0.156942
C     -0.724426   -3.657983    0.204123
C     -2.075914   -3.985506    0.140390
O     -2.397119   -5.306425    0.190213
C     -3.054205   -3.000703    0.033364
C     -2.665491   -1.662816   -0.012727
C     -1.310660   -1.322500    0.045492
H     -4.626343    4.744141   -0.427071
H     -6.112608    2.053838   -0.374028
H     -2.360316    4.401160   -0.302315
H      2.973813    1.545993   -0.807776
H      4.944930    2.630228   -1.030377
H      7.245472    0.829753   -0.021827
H      5.689006   -2.092897    1.224519
H      3.242036   -2.343860    1.107768
H      0.031998   -4.430584    0.293600
H     -3.363156   -5.433290    0.142389
H     -4.111532   -3.255450   -0.013766
