27

O     -4.720740   -0.389886   -0.194822
C     -3.430299    0.053090   -0.138251
C     -3.185206    1.417632   -0.114894
C     -1.868119    1.867454   -0.057183
O     -1.692503    3.225577   -0.036700
C     -0.797829    0.956907   -0.022856
C      0.596312    1.441315    0.038303
O      0.818039    2.648519    0.059147
C      1.707105    0.472009    0.073701
C      3.029075    0.930208    0.131682
C      4.082957    0.015465    0.165324
C      3.820366   -1.354172    0.141240
C      2.503207   -1.812578    0.083446
C      1.445223   -0.895885    0.049653
C      0.055363   -1.382875   -0.011376
O     -0.190888   -2.585544   -0.033184
C     -1.058084   -0.416217   -0.046905
C     -2.382975   -0.865691   -0.104931
O     -2.736403   -2.192485   -0.132299
H     -4.654365   -1.366707   -0.201741
H     -4.009642    2.124301   -0.141285
H     -0.727775    3.416141    0.004182
H      3.243948    1.997430    0.150865
H      5.110085    0.371866    0.210379
H      4.642785   -2.066180    0.167513
H      2.308081   -2.883504    0.065027
H     -1.907718   -2.726190   -0.104035
