27
 xtb: 6.6.1 (8d0f1dd)
O     -4.684400   -0.390800   -0.191200
C     -3.425700    0.053200   -0.137600
C     -3.157300    1.400500   -0.113100
C     -1.838800    1.875300   -0.056300
O     -1.671400    3.194000   -0.038700
C     -0.761400    0.968100   -0.020800
C      0.594100    1.468300    0.040100
O      0.851700    2.686000    0.063600
C      1.683400    0.481200    0.074200
C      3.003000    0.924100    0.130000
C      4.048600    0.019700    0.162700
C      3.789000   -1.343800    0.140400
C      2.484400   -1.797000    0.085100
C      1.421400   -0.895200    0.051000
C      0.049300   -1.406200   -0.010200
O     -0.173400   -2.626700   -0.030700
C     -1.031100   -0.428200   -0.046200
C     -2.348300   -0.882300   -0.105800
O     -2.702500   -2.172600   -0.137400
H     -4.693700   -1.366800   -0.199100
H     -3.965300    2.112600   -0.138000
H     -0.698200    3.395800    0.003000
H      3.182100    1.988700    0.146800
H      5.065500    0.376500    0.205700
H      4.603000   -2.050800    0.166200
H      2.258300   -2.852600    0.066600
H     -1.882100   -2.731000   -0.110400
