34
 xtb: 6.6.1 (8d0f1dd)
C     10.113300    0.935300   -1.422500
C      8.754500    0.959600   -0.824700
C      7.640400    0.612500   -1.479800
C      6.369600    0.641200   -0.902000
C      5.255500    0.661200   -0.410500
C      4.027800    0.679700    0.131800
C      2.912400    0.698100    0.627200
C      1.652500    0.720100    1.197000
C      0.517000    0.386000    0.525400
C     -0.762500    0.411900    1.123100
C     -1.911500    0.081100    0.465700
C     -3.183500    0.108400    1.069700
C     -4.340100   -0.221400    0.419600
C     -5.602100   -0.190700    1.036600
C     -6.774000   -0.514000    0.410600
C     -8.104000   -0.521200    0.920400
C     -8.930800   -0.911300   -0.082100
C     -8.110100   -1.156300   -1.247600
O     -8.415100   -1.522200   -2.373300
O     -6.812300   -0.906200   -0.913000
H     10.550900    1.932800   -1.392000
H     10.763100    0.280200   -0.843200
H     10.087400    0.590300   -2.452900
H      8.688100    1.283200    0.205800
H      7.683700    0.286100   -2.512100
H      1.598300    1.023000    2.235900
H      0.586300    0.085700   -0.511700
H     -0.821800    0.712600    2.161300
H     -1.856900   -0.219300   -0.572400
H     -3.239300    0.408400    2.108100
H     -4.306700   -0.523200   -0.618500
H     -5.670800    0.105400    2.073000
H     -8.365200   -0.257700    1.925800
H     -9.993900   -1.034800   -0.078800
