137
 xtb: 6.6.1 (8d0f1dd)
C     16.577700    1.433400    1.413600
C     16.982900    0.681700    0.149900
C     16.079800   -0.506500   -0.218500
C     16.111100   -1.586600    0.860800
C     14.649000   -0.046400   -0.525600
C     13.779900   -1.127600   -1.186700
C     12.784600   -1.791700   -0.231900
C     11.598300   -0.888700    0.101600
C     10.636100   -1.550900    1.084900
C      9.476700   -0.630900    1.464100
C      8.513000   -1.262700    2.470400
C      7.600800   -2.307700    1.829100
C      6.805900   -3.126300    2.847000
C      5.852600   -2.274400    3.693400
C      4.882200   -1.544600    2.804600
O      4.123200   -2.074500    2.023000
O      4.939300   -0.227100    3.003900
C      4.134900    0.616500    2.188000
C      5.005600    1.339200    1.155200
O      5.655600    0.338800    0.363500
C      5.831200    0.627500   -0.974200
O      4.657300    0.258200   -1.692800
C      4.832300   -0.110900   -2.991800
O      5.951200   -0.098100   -3.496700
C      3.616300   -0.491300   -3.672700
C      3.764500   -0.902500   -5.109000
C      2.415000   -0.460100   -3.023600
C      1.173500   -0.803100   -3.599300
C     -0.000600   -0.725600   -2.907400
C     -1.290100   -1.049400   -3.408000
C     -1.401600   -1.559300   -4.813600
C     -2.372700   -0.870900   -2.581600
C     -3.729100   -1.117800   -2.871600
C     -4.726800   -0.866700   -1.973400
C     -6.115700   -1.078500   -2.183700
C     -6.559700   -1.668400   -3.489400
C     -6.988500   -0.724700   -1.184400
C     -8.393400   -0.828900   -1.183300
C     -9.169100   -0.415600   -0.137900
C    -10.576600   -0.512900   -0.141800
C    -11.452700   -0.114800    0.831900
C    -11.020600    0.517400    2.119700
C    -12.851500   -0.307900    0.607600
C    -13.855500    0.044300    1.446300
C    -15.229800   -0.189300    1.139500
C    -16.300700    0.128200    1.892800
C    -16.248000    0.807900    3.220900
C    -17.680400   -0.182900    1.388900
C    -18.187700    0.908700    0.419500
C    -18.315300    2.245900    1.083500
C    -19.343500    2.676900    1.807000
C    -19.337300    4.038400    2.439200
C    -20.582600    1.879300    2.084800
C      6.153900    2.110700   -1.238800
O      7.333900    2.484100   -0.577300
C      5.006500    3.004700   -0.738000
O      4.251000    3.409800   -1.850500
C      4.138400    2.281300    0.308400
O      3.420900    3.188000    1.099500
H     15.584700    1.862300    1.311000
H     17.278600    2.244300    1.598400
H     16.586900    0.775500    2.278000
H     16.991700    1.382500   -0.688800
H     18.003400    0.310900    0.274800
H     16.495200   -0.938000   -1.138300
H     15.594700   -1.253400    1.757300
H     15.630100   -2.494000    0.505700
H     17.139000   -1.828400    1.122700
H     14.173600    0.281400    0.398600
H     14.709800    0.819400   -1.188400
H     14.427800   -1.894300   -1.616700
H     13.214700   -0.689000   -2.012100
H     13.291400   -2.074900    0.691400
H     12.405500   -2.706300   -0.694900
H     11.062400   -0.647800   -0.819600
H     11.956100    0.050000    0.529100
H     10.252200   -2.470300    0.638800
H     11.181900   -1.825400    1.990700
H      9.887700    0.284800    1.895000
H      8.916500   -0.349200    0.568800
H      9.087500   -1.725000    3.276200
H      7.895000   -0.472600    2.899500
H      8.201400   -3.000500    1.237000
H      6.909100   -1.805100    1.146400
H      6.215100   -3.871000    2.309900
H      7.494400   -3.646900    3.513800
H      6.395400   -1.548200    4.293900
H      5.277900   -2.931300    4.348000
H      3.652500    1.342000    2.843700
H      3.389000    0.004200    1.671700
H      5.791700    1.912600    1.668200
H      6.660100   -0.006700   -1.322900
H      3.416300   -1.923000   -5.254000
H      4.813600   -0.845900   -5.387500
H      3.192300   -0.242800   -5.757600
H      2.412300   -0.150100   -1.987400
H      1.174000   -1.131100   -4.626100
H      0.046300   -0.381000   -1.881200
H     -1.050400   -0.801600   -5.512200
H     -0.782700   -2.446000   -4.937200
H     -2.422600   -1.815400   -5.070600
H     -2.170100   -0.488800   -1.587400
H     -3.986600   -1.512700   -3.841400
H     -4.444300   -0.459300   -1.009800
H     -6.068800   -2.626500   -3.651700
H     -6.290300   -1.004400   -4.309600
H     -7.631800   -1.825700   -3.516200
H     -6.554300   -0.304000   -0.284200
H     -8.891800   -1.247200   -2.046500
H     -8.672200    0.007500    0.724000
H    -11.005500   -0.955100   -1.034200
H    -11.380000   -0.071700    2.962000
H    -11.442000    1.518300    2.202100
H     -9.941600    0.593800    2.190700
H    -13.118500   -0.780100   -0.330800
H    -13.622900    0.517500    2.387400
H    -15.411600   -0.681900    0.190500
H    -16.532400    0.102900    4.002600
H    -16.968200    1.625000    3.237200
H    -15.263600    1.200700    3.451500
H    -18.375000   -0.257300    2.226000
H    -17.675700   -1.134100    0.852500
H    -19.150400    0.587000    0.017600
H    -17.485200    0.987700   -0.411900
H    -17.458700    2.897700    0.964200
H    -20.144100    4.645800    2.030300
H    -18.395000    4.551400    2.264700
H    -19.499400    3.956000    3.513400
H    -20.585600    1.552200    3.124600
H    -21.465700    2.497500    1.932300
H    -20.655700    1.001400    1.451100
H      6.226000    2.246300   -2.324400
H      8.102300    2.324100   -1.141400
H      5.482400    3.876600   -0.259500
H      3.495800    3.936900   -1.545400
H      3.387500    1.682700   -0.218900
H      4.035200    3.767400    1.576800
