137

C     17.265780    2.229248    0.807637
C     17.928623    1.062764    0.086004
C     17.131991   -0.260234    0.097123
C     17.008972   -0.820550    1.514128
C     15.764694   -0.103723   -0.603420
C     15.065539   -1.425969   -0.951665
C     14.061810   -1.948290    0.082262
C     12.810413   -1.072979    0.220695
C     11.760605   -1.760586    1.097013
C     10.515936   -0.887317    1.279198
C      9.477864   -1.518742    2.213210
C      8.697655   -2.667724    1.565050
C      7.874267   -3.489916    2.565593
C      6.842397   -2.696329    3.363088
C      5.716379   -2.171396    2.503106
O      5.112905   -2.836953    1.675636
O      5.444970   -0.882510    2.842936
C      4.371813   -0.233776    2.128308
C      4.953082    0.690697    1.047191
O      5.562941   -0.125090    0.039737
C      5.483251    0.355593   -1.311564
O      4.255303   -0.082183   -1.907885
C      4.286471   -0.142060   -3.259879
O      5.289931    0.027252   -3.941621
C      2.936969   -0.399872   -3.858480
C      2.989708   -0.571395   -5.353569
C      1.825887   -0.404910   -3.092745
C      0.464282   -0.553550   -3.572695
C     -0.616342   -0.484123   -2.775429
C     -2.016446   -0.550011   -3.220289
C     -2.264068   -0.545113   -4.712123
C     -2.994061   -0.567371   -2.287694
C     -4.423813   -0.614549   -2.531420
C     -5.345130   -0.607268   -1.551830
C     -6.801825   -0.633625   -1.736511
C     -7.319270   -0.553754   -3.155167
C     -7.590401   -0.702164   -0.641376
C     -9.039150   -0.735518   -0.607479
C     -9.754085   -0.740794    0.530165
C    -11.205422   -0.744888    0.517972
C    -12.048274   -0.612044    1.563455
C    -11.609098   -0.458145    2.999018
C    -13.487525   -0.615632    1.287608
C    -14.474535   -0.302922    2.146399
C    -15.867992   -0.345963    1.756009
C    -16.922892    0.164506    2.424736
C    -16.851631    0.931746    3.719321
C    -18.329685   -0.023312    1.876159
C    -18.603638    0.638507    0.515893
C    -18.552438    2.143346    0.557241
C    -19.575662    3.010737    0.427184
C    -19.323756    4.495829    0.429423
C    -21.022409    2.632226    0.269730
C      5.604482    1.896142   -1.390889
O      6.878558    2.324002   -0.876795
C      4.496954    2.575756   -0.566652
O      3.455100    3.059629   -1.429600
C      3.881622    1.632595    0.486006
O      3.248779    2.420591    1.502128
H     16.324606    2.513921    0.327245
H     17.923621    3.102066    0.783132
H     17.062286    1.993907    1.855689
H     18.114322    1.358045   -0.953266
H     18.912722    0.890466    0.535575
H     17.729130   -0.977075   -0.484580
H     16.272602   -0.268648    2.106304
H     16.709030   -1.873669    1.492402
H     17.969920   -0.776534    2.038370
H     15.104148    0.542767   -0.019112
H     15.940137    0.421644   -1.553207
H     15.816218   -2.202351   -1.143874
H     14.526574   -1.289507   -1.898990
H     14.536326   -2.064021    1.060936
H     13.754301   -2.952527   -0.233098
H     12.384050   -0.873231   -0.769807
H     13.076814   -0.106994    0.663297
H     11.483015   -2.717971    0.640194
H     12.195040   -1.986082    2.078511
H     10.822287    0.074359    1.710165
H     10.060215   -0.667372    0.306655
H      9.972764   -1.866032    3.129537
H      8.770581   -0.735949    2.511318
H      9.390292   -3.358280    1.068451
H      8.044716   -2.267634    0.781250
H      7.374045   -4.298775    2.019498
H      8.561721   -3.971058    3.271572
H      7.325648   -1.871447    3.898918
H      6.388160   -3.338546    4.124125
H      3.819725    0.344302    2.878043
H      3.676515   -0.963031    1.696077
H      5.754492    1.280612    1.509653
H      6.336644   -0.112575   -1.813102
H      3.561888   -1.469957   -5.607592
H      3.477866    0.291525   -5.820948
H      2.011565   -0.665136   -5.824528
H      1.916445   -0.258451   -2.018452
H      0.328322   -0.705087   -4.633933
H     -0.466184   -0.345781   -1.704873
H     -1.725436    0.278043   -5.192526
H     -1.934060   -1.489181   -5.159864
H     -3.310480   -0.407614   -4.986786
H     -2.714964   -0.554526   -1.234863
H     -4.750664   -0.656476   -3.563646
H     -5.000275   -0.578241   -0.518377
H     -7.028649   -1.444537   -3.721166
H     -6.914822    0.332408   -3.660477
H     -8.405935   -0.469929   -3.229729
H     -7.116870   -0.737334    0.344115
H     -9.568159   -0.748636   -1.555015
H     -9.241803   -0.723067    1.484193
H    -11.637970   -0.842447   -0.477609
H    -12.048394   -1.246489    3.623380
H    -11.921226    0.516051    3.392821
H    -10.527104   -0.512552    3.134689
H    -13.767247   -0.854796    0.262561
H    -14.247753   -0.024973    3.166486
H    -16.065164   -0.863306    0.817716
H    -17.443881    0.421606    4.488376
H    -17.258795    1.939777    3.583361
H    -15.836642    1.043647    4.108018
H    -19.068650    0.333787    2.605262
H    -18.513668   -1.101012    1.781345
H    -19.571602    0.282589    0.148751
H    -17.872896    0.294157   -0.226627
H    -17.546138    2.546273    0.673789
H    -19.555421    4.920665   -0.552574
H    -18.281803    4.738343    0.663604
H    -19.951534    4.994550    1.177959
H    -21.633746    3.178344    0.997468
H    -21.373133    2.888129   -0.734633
H    -21.211465    1.571189    0.439008
H      5.543809    2.237110   -2.429462
H      7.560823    1.951398   -1.466004
H      4.899936    3.469863   -0.071941
H      2.646988    3.151094   -0.880946
H      3.077013    1.047226    0.025968
H      3.928825    2.967771    1.936236
