30

C     -2.672035   -0.029198   -2.761045
N     -1.478262    0.081295   -1.974143
C     -1.360790   -0.148110   -0.584950
C     -2.272346   -0.502585    0.399192
C     -1.734910   -0.680656    1.706521
C     -0.354589   -0.478545    2.018204
C      0.533995   -0.085418    1.000233
C     -0.039212    0.047782   -0.253419
C      0.689811    0.401435   -1.354670
C      2.036133    0.652991   -1.270787
C      2.575987    0.517672    0.001891
N      1.866075    0.156149    1.131886
C      4.037805    0.773679    0.203928
O      4.785248    1.092830   -0.710626
N      4.486812    0.627424    1.487872
C     -0.236380    0.428535   -2.497306
O      0.077179    0.702802   -3.637940
N      0.125058   -0.619920    3.326603
Cl    -2.814459   -1.159476    2.994902
N     -3.612137   -0.760937    0.139151
H     -3.400652    0.711894   -2.421232
H     -3.079112   -1.039949   -2.670034
H     -2.452172    0.162018   -3.815614
H      2.628489    0.934806   -2.132221
H      5.462219    0.785866    1.694932
H      3.839506    0.364585    2.221351
H     -0.485071   -0.964169    4.057462
H      1.119758   -0.520859    3.492057
H     -4.055419   -0.471431   -0.717481
H     -4.216528   -0.980512    0.925281
