78

C     -9.028669    1.431084   -1.355726
C     -7.526825    1.190668   -1.401358
C     -6.948607    1.035649    0.001071
C     -5.444647    0.766580   -0.093311
C     -5.158762   -0.433459   -1.015725
C     -5.911998   -0.302568   -2.352775
O     -7.301020   -0.010001   -2.134235
C     -5.906993   -1.600955   -3.162000
C     -3.651756   -0.504614   -1.211542
O     -3.119015   -0.778563   -2.284553
C     -2.774398   -0.260845   -0.029074
C     -1.388608   -0.502141   -0.109905
C     -0.539107   -0.288489    0.996049
C     -1.118706    0.198324    2.180473
C     -2.489973    0.465989    2.262245
C     -3.329754    0.237455    1.160441
C     -4.806681    0.524393    1.281553
O     -5.445570   -0.566502    1.934046
O     -0.284309    0.512864    3.226096
C     -0.631428   -0.179147    4.426155
C      0.914426   -0.557711    0.895334
C      1.404919   -1.867072    0.822922
C      2.766868   -2.116664    0.619782
C      3.692770   -1.067862    0.427604
C      5.057135   -1.304623    0.138520
O      5.561317   -2.581921    0.110381
C      5.952806   -0.268542   -0.153455
C      7.365318   -0.557401   -0.592467
C      7.874208    0.607171   -1.439651
O      7.847970    1.785374   -0.635471
C      6.509712    2.207393   -0.295736
C      5.533282    1.064901   -0.037808
C      4.180822    1.308537    0.250559
O      3.774704    2.623277    0.239157
C      3.234549    0.266994    0.487240
C      1.854277    0.483512    0.771164
O      1.437273    1.792899    0.932928
C      6.692415    3.121627    0.915847
C      9.313299    0.378964   -1.878809
O      0.530939   -2.911613    1.012045
C      0.504769   -3.794597   -0.110218
O     -0.806024   -0.938496   -1.279218
H     -9.548915    0.588335   -0.885938
H     -9.270138    2.345210   -0.805391
H     -9.428429    1.523632   -2.372137
H     -7.053153    2.029193   -1.926690
H     -7.133812    1.938568    0.594567
H     -7.444850    0.198190    0.509901
H     -4.973063    1.660292   -0.531149
H     -5.479405   -1.362069   -0.526379
H     -5.480452    0.499073   -2.967448
H     -6.352417   -2.422769   -2.589360
H     -6.521219   -1.483492   -4.064814
H     -4.905871   -1.903369   -3.476286
H     -2.901990    0.886896    3.177776
H     -4.955308    1.415059    1.903739
H     -4.790196   -1.058242    2.459262
H     -1.375658    0.397309    4.985790
H      0.269140   -0.259564    5.044316
H     -1.003644   -1.193546    4.231050
H      3.096868   -3.149824    0.570471
H      5.174079   -3.062516    0.860161
H      7.982119   -0.680800    0.306384
H      7.410564   -1.477875   -1.186332
H      7.255710    0.763358   -2.330924
H      6.142393    2.793559   -1.147925
H      2.813800    2.617676    0.424307
H      0.800469    1.782572    1.680202
H      7.439500    3.893256    0.696691
H      5.773189    3.623006    1.228178
H      7.072149    2.552114    1.772503
H      9.973856    0.230935   -1.018352
H      9.390992   -0.488122   -2.540388
H      9.694096    1.257044   -2.412798
H     -0.468736   -4.290997   -0.114423
H      1.280165   -4.559987   -0.009960
H      0.612383   -3.267185   -1.065478
H     -1.485147   -0.944788   -1.991698
