38

C     -5.309299   -0.111858   -0.214447
C     -4.081797    0.014692   -0.878222
C     -2.874176   -0.051665   -0.149744
C     -2.954239   -0.245502    1.236882
C     -4.172156   -0.373933    1.916242
C     -5.339714   -0.302660    1.160408
O     -6.523999   -0.428634    1.828896
N     -1.667515   -0.276864    1.728315
C     -0.790482   -0.110402    0.703619
C      0.764451   -0.070896    0.737191
C      1.504018    0.110270   -0.422189
C      0.737165    0.249445   -1.587179
C     -0.679261    0.213457   -1.617760
C     -1.487595    0.034262   -0.486778
C     -1.078811    0.394823   -3.012675
O     -2.209174    0.423834   -3.454963
N      0.067421    0.526699   -3.731705
C      1.186788    0.452386   -2.963760
O      2.332245    0.539221   -3.356913
C      2.877343    0.094464   -0.025568
C      2.907258   -0.096578    1.363433
N      1.603788   -0.193749    1.798943
C      4.099687   -0.163769    2.094832
C      5.293636   -0.032499    1.389984
C      5.312904    0.158019    0.014888
C      4.110336    0.222828   -0.701352
O      6.452851   -0.098932    2.109069
H     -6.224302   -0.057434   -0.796421
H     -4.072954    0.163625   -1.954447
H     -4.216815   -0.523498    2.989683
H     -7.248461   -0.360286    1.185297
H     -1.431867   -0.404652    2.701723
H      0.085440    0.664996   -4.729053
H      1.333163   -0.334399    2.761421
H      4.105538   -0.312051    3.169364
H      6.248215    0.259453   -0.527137
H      4.140373    0.372299   -1.777120
H      7.199995    0.006803    1.497242
