37

C      3.792616   -1.512225   -1.369553
C      3.779033   -1.600879    0.158292
C      5.204417   -1.774824    0.683714
C      3.129825   -0.359287    0.788874
N      1.704811   -0.332141    0.435703
C      1.105251    0.724354    0.871329
C     -0.291785    0.893629    0.599170
C     -1.148049    1.908415    0.968075
C     -2.431915    1.606606    0.446857
C     -2.337573    0.405585   -0.230737
N     -1.030298   -0.003877   -0.136860
C     -3.339112   -0.336790   -0.930382
C     -4.386339    0.067586   -1.732574
C     -5.091436   -1.072866   -2.173876
C     -4.463271   -2.166978   -1.622652
N     -3.407705   -1.712764   -0.872554
Br    -4.865792    1.809075   -2.249637
O     -0.716066    2.957746    1.705062
C     -1.716888    3.933202    1.968969
H      4.264573   -2.399697   -1.804680
H      4.348377   -0.632430   -1.711462
H      2.776521   -1.448827   -1.772145
H      3.199168   -2.488494    0.442511
H      5.206885   -1.882689    1.773515
H      5.668984   -2.671184    0.259323
H      5.831077   -0.913974    0.426645
H      3.233102   -0.408075    1.880340
H      3.635313    0.549020    0.436113
H      1.622795    1.510083    1.451552
H     -3.337838    2.186698    0.556881
H     -0.625060   -0.827066   -0.562871
H     -5.959424   -1.100242   -2.819541
H     -4.676522   -3.225209   -1.694491
H     -2.790346   -2.299361   -0.327593
H     -2.534165    3.509958    2.562939
H     -1.257586    4.734568    2.555704
H     -2.095577    4.373355    1.040041
