37
 xtb: 6.6.1 (8d0f1dd)
C      3.891300   -0.298400   -0.951800
C      3.733100   -1.463400    0.021500
C      5.096900   -1.981000    0.468300
C      2.901100   -1.036200    1.242800
N      1.540100   -0.799800    0.867400
C      1.050500    0.369800    0.985900
C     -0.285700    0.662900    0.597900
C     -1.000200    1.862700    0.664700
C     -2.278300    1.622200    0.150500
C     -2.330300    0.280800   -0.224600
N     -1.124600   -0.274100    0.055400
C     -3.407800   -0.468500   -0.804200
C     -4.675700   -0.088500   -1.226600
C     -5.344500   -1.218100   -1.726700
C     -4.473900   -2.267600   -1.599400
N     -3.322300   -1.811500   -1.051500
Br    -5.441500    1.644000   -1.178900
O     -0.467800    3.011700    1.158000
C     -1.319700    4.143700    1.158600
H      4.425900   -0.617600   -1.842800
H      4.449700    0.511300   -0.485100
H      2.917000    0.083700   -1.249600
H      3.188700   -2.269500   -0.479700
H      4.987000   -2.836400    1.130500
H      5.684500   -2.284500   -0.394400
H      5.641500   -1.202400    0.998800
H      2.899400   -1.856500    1.968500
H      3.363500   -0.151300    1.714400
H      1.616400    1.219000    1.395700
H     -3.072700    2.332500    0.063500
H     -0.813000   -1.218500   -0.096900
H     -6.338300   -1.235400   -2.124300
H     -4.602800   -3.296600   -1.863800
H     -2.524500   -2.387800   -0.841000
H     -2.203600    3.966400    1.776400
H     -0.729500    4.953700    1.580300
H     -1.629900    4.399000    0.142200
