92

C     13.103152   -0.701799    1.222221
C     12.851073   -0.319236   -0.256020
C     12.789993   -1.632803   -1.084551
C     14.079542    0.437024   -0.799560
C     14.156653    1.819967   -0.238706
C     12.906136    2.594570   -0.228353
C     11.701511    2.001922   -0.320092
C     10.525561    2.939356   -0.441004
C     11.531761    0.526526   -0.325774
C     10.355565   -0.151141   -0.347967
C      8.973052    0.284067   -0.287536
C      7.900779   -0.420611   -0.712633
C      7.998456   -1.732280   -1.456121
C      6.560142    0.129311   -0.484491
C      5.399345   -0.520635   -0.674355
C      4.104763    0.093409   -0.443413
C      2.896914   -0.511847   -0.466542
C      2.680256   -1.987765   -0.703681
C      1.703280    0.313699   -0.253344
C      0.434695   -0.120052   -0.165704
C     -0.692539    0.774179    0.007197
C     -1.957062    0.334707    0.124819
C     -3.162613    1.160578    0.255466
C     -2.983346    2.659126    0.220844
C     -4.352762    0.535130    0.386158
C     -5.668999    1.143036    0.463764
C     -6.786524    0.421487    0.660328
C     -8.159878    0.929633    0.704106
C     -8.387800    2.378421    0.347589
C     -9.151941    0.069041    1.015912
C    -10.560212    0.381711    1.153370
C    -11.634352   -0.422131    0.957758
C    -11.606738   -1.850855    0.334245
C    -10.424051   -2.145813   -0.628531
C    -11.559939   -2.890813    1.476847
C    -12.860895   -2.082324   -0.542414
C    -14.138225   -1.724514    0.153893
C    -14.120922   -0.564635    1.055010
C    -12.977584    0.057029    1.390621
C    -13.083335    1.243345    2.324215
O    -15.194338   -2.320071   -0.051869
O     15.209549    2.340294    0.122164
H     14.027747   -1.282300    1.330218
H     13.190780    0.182459    1.864761
H     12.287324   -1.315903    1.619660
H     12.137126   -2.386680   -0.631637
H     12.438758   -1.442317   -2.106414
H     13.780898   -2.098795   -1.159899
H     15.008441   -0.091747   -0.546750
H     14.044391    0.528685   -1.894182
H     13.037300    3.671071   -0.175704
H     10.842745    3.972528   -0.628922
H      9.948752    2.958214    0.488174
H      9.885289    2.664966   -1.288680
H     10.409293   -1.237711   -0.325923
H      8.795140    1.222008    0.228255
H      7.368597   -1.713675   -2.354741
H      9.008946   -1.950331   -1.812561
H      7.679113   -2.565583   -0.818437
H      6.523333    1.152292   -0.111468
H      5.410884   -1.545993   -1.022504
H      4.146667    1.164852   -0.238003
H      2.047921   -2.148964   -1.584782
H      3.600119   -2.549275   -0.874808
H      2.197295   -2.445686    0.166898
H      1.882809    1.385286   -0.167960
H      0.203876   -1.179352   -0.235315
H     -0.467067    1.837763    0.018614
H     -2.129419   -0.742601    0.109770
H     -2.298640    2.983415    1.012728
H     -2.577159    2.974808   -0.747888
H     -3.912342    3.214189    0.374725
H     -4.365280   -0.555660    0.413396
H     -5.735307    2.216869    0.335724
H     -6.685393   -0.654905    0.796743
H     -7.867920    2.643225   -0.581787
H     -8.026390    3.030829    1.150905
H     -9.441782    2.614829    0.173738
H     -8.894215   -0.953188    1.274608
H    -10.713842    1.387185    1.540295
H    -10.259693   -1.319669   -1.329925
H    -10.620136   -3.041321   -1.232173
H     -9.491421   -2.360165   -0.101799
H    -12.406346   -2.788254    2.166450
H    -10.642376   -2.783132    2.066427
H    -11.581269   -3.913096    1.080977
H    -12.813642   -1.480901   -1.461506
H    -12.928604   -3.137397   -0.841266
H    -15.093571   -0.245368    1.411225
H    -14.106859    1.388540    2.690158
H    -12.450338    1.100404    3.207577
H    -12.792656    2.167308    1.816602
