92
 xtb: 6.6.1 (8d0f1dd)
C     13.651200   -0.179200    0.518800
C     12.787200    0.018400   -0.736000
C     12.771100   -1.296700   -1.519600
C     13.409000    1.096200   -1.636800
C     13.425100    2.468000   -1.008100
C     12.383500    2.732000   -0.057900
C     11.397500    1.841400    0.241200
C     10.363400    2.249300    1.245500
C     11.405800    0.512400   -0.321700
C     10.306800   -0.283900   -0.451600
C      8.945000    0.093400   -0.338700
C      7.865900   -0.749900   -0.341400
C      7.981700   -2.244100   -0.337600
C      6.560800   -0.174000   -0.319700
C      5.382400   -0.855900   -0.314300
C      4.128500   -0.204300   -0.289000
C      2.885400   -0.779300   -0.276300
C      2.661100   -2.261000   -0.304500
C      1.744800    0.075000   -0.227800
C      0.443600   -0.320800   -0.189000
C     -0.640000    0.587600   -0.126900
C     -1.940000    0.189300   -0.070800
C     -3.081400    1.039300    0.009000
C     -2.864600    2.522000    0.012500
C     -4.319900    0.457600    0.085900
C     -5.572900    1.100000    0.193100
C     -6.743100    0.406500    0.276900
C     -8.045900    0.966100    0.412600
C     -8.181100    2.458100    0.430800
C     -9.112100    0.106400    0.504500
C    -10.449700    0.464300    0.779400
C    -11.583000   -0.307700    0.757300
C    -11.637300   -1.718000    0.180200
C    -10.768100   -1.893200   -1.077600
C    -11.204900   -2.711400    1.269900
C    -13.073200   -2.058800   -0.252000
C    -14.108600   -1.775600    0.802600
C    -13.910200   -0.543200    1.501700
C    -12.768000    0.196100    1.403000
C    -12.747100    1.528700    2.093100
O    -15.078200   -2.519100    0.986800
O     14.280600    3.304300   -1.314700
H     14.639800   -0.535800    0.239400
H     13.767500    0.754100    1.064400
H     13.190700   -0.911200    1.178200
H     12.466700   -2.127300   -0.888200
H     12.109100   -1.233100   -2.379700
H     13.775500   -1.507500   -1.879900
H     14.430200    0.830500   -1.917500
H     12.824900    1.179200   -2.559300
H     12.399300    3.707300    0.409300
H     10.832400    2.853100    2.019800
H      9.889700    1.385600    1.701300
H      9.599300    2.868000    0.777000
H     10.481500   -1.303200   -0.757200
H      8.729100    1.150600   -0.309400
H      7.506900   -2.657600   -1.226100
H      9.014300   -2.572400   -0.311200
H      7.477000   -2.650800    0.537000
H      6.517000    0.908500   -0.310300
H      5.400200   -1.934300   -0.326300
H      4.169100    0.879000   -0.271400
H      2.047200   -2.526900   -1.163500
H      3.592300   -2.811700   -0.366900
H      2.135700   -2.574500    0.596400
H      1.947300    1.139400   -0.214200
H      0.195300   -1.372600   -0.198600
H     -0.392900    1.639700   -0.118500
H     -2.139500   -0.875700   -0.078600
H     -2.270400    2.808500    0.878900
H     -2.321200    2.819500   -0.882800
H     -3.799600    3.069200    0.042200
H     -4.354500   -0.626000    0.071300
H     -5.598200    2.178000    0.218400
H     -6.687800   -0.675300    0.253100
H     -7.713000    2.880600   -0.456300
H     -7.680000    2.868400    1.306500
H     -9.218200    2.772800    0.442900
H     -8.880400   -0.944000    0.429900
H    -10.581600    1.484000    1.106900
H    -10.758200   -0.981300   -1.668600
H    -11.176600   -2.693600   -1.690800
H     -9.746800   -2.165000   -0.837800
H    -11.907700   -2.684500    2.101100
H    -10.216300   -2.466000    1.648200
H    -11.188200   -3.722600    0.869600
H    -13.341900   -1.448400   -1.119900
H    -13.143000   -3.108400   -0.544900
H    -14.729100   -0.206400    2.121600
H    -13.709000    1.717500    2.561300
H    -11.978000    1.560400    2.861700
H    -12.557400    2.325600    1.376400
