38

O     -0.815650   -0.208873    1.921965
C     -0.553646   -0.010679    0.740198
C      0.837788   -0.097691    0.216818
O      1.113284    0.144863   -1.139437
C      1.817338   -0.437367    1.074584
C      3.239600   -0.599078    0.736585
C      3.941931    0.348445   -0.024189
C      5.294311    0.151382   -0.288422
O      6.022550    1.037643   -1.034210
C      5.955436   -0.967620    0.209380
O      7.282251   -1.150045   -0.053782
C      5.282829   -1.903982    0.977390
C      3.924478   -1.716008    1.245168
C     -1.610630    0.323555   -0.254160
C     -3.022242    0.435671    0.183380
C     -4.020249   -0.379109   -0.379979
C     -5.338190   -0.249887    0.047900
O     -6.346569   -1.013186   -0.474296
C     -5.672964    0.674196    1.033201
O     -6.968760    0.792421    1.445975
C     -4.703772    1.481426    1.606098
C     -3.377945    1.361711    1.181089
C     -1.261535    0.543558   -1.532632
O     -2.210093    0.878503   -2.499741
C      0.136377    0.469480   -2.012940
O      0.359399    0.712247   -3.197294
H      1.576699   -0.651086    2.116276
H      3.436623    1.233130   -0.397601
H      5.425821    1.742751   -1.339059
H      7.533370   -0.376158   -0.596472
H      5.808888   -2.770783    1.365646
H      3.404064   -2.455376    1.851048
H     -3.761461   -1.100407   -1.148961
H     -5.967499   -1.589918   -1.159544
H     -7.455737    0.130421    0.916048
H     -4.974291    2.194520    2.378799
H     -2.623624    1.994437    1.644613
H     -1.708182    1.026891   -3.331213
