96
 xtb: 6.6.1 (8d0f1dd)
C     17.344900   -2.348300   -0.520400
C     16.074100   -1.559700   -0.652900
C     14.951500   -2.322400   -1.290500
C     15.996300   -0.302800   -0.231100
C     14.799100    0.595900   -0.277900
C     13.996300    0.501800    1.037000
C     12.812700    1.418600    1.008300
C     13.102300    2.884100    1.147200
C     11.571100    0.933100    0.824800
C     10.374700    1.712400    0.743300
C      9.149200    1.165000    0.575000
C      7.908400    1.876000    0.489500
C      7.950400    3.373400    0.562500
C      6.752600    1.161800    0.353400
C      5.429500    1.659400    0.267100
C      4.342800    0.848100    0.159400
C      2.982800    1.269000    0.081900
C      2.694800    2.741500    0.092200
C      2.002200    0.315300    0.007700
C      0.605900    0.509500   -0.059700
C     -0.294000   -0.514500   -0.115500
C     -1.688400   -0.303200   -0.174000
C     -2.689600   -1.236500   -0.220500
C     -2.435900   -2.714900   -0.218700
C     -4.039400   -0.780700   -0.269300
C     -5.157000   -1.555500   -0.305900
C     -6.460000   -1.001800   -0.348600
C     -7.656100   -1.659300   -0.379100
C     -7.778900   -3.153700   -0.374500
C     -8.860200   -0.884100   -0.415900
C    -10.125300   -1.362300   -0.438500
C    -11.273000   -0.509600   -0.472000
C    -12.555900   -0.914900   -0.490400
C    -12.953700   -2.361300   -0.468100
C    -13.672900    0.082500   -0.485700
C    -14.304400    0.195200    0.918300
C    -15.419700    1.194700    0.918800
C    -16.702100    0.958800    0.664100
C    -17.274600   -0.389900    0.343000
C    -17.714200    2.067300    0.663800
H     17.691700   -2.670300   -1.501600
H     17.172200   -3.241900    0.078100
H     18.128000   -1.759700   -0.050000
H     14.716400   -3.199500   -0.688300
H     15.252500   -2.672100   -2.277500
H     14.051600   -1.725200   -1.391200
H     16.868400    0.135800    0.238500
H     14.141100    0.338400   -1.108700
H     15.129600    1.626000   -0.421200
H     13.674600   -0.531900    1.174100
H     14.654800    0.767000    1.867800
H     12.866900    3.412800    0.224000
H     14.151200    3.047400    1.378500
H     12.503400    3.321200    1.944200
H     11.442400   -0.139000    0.732600
H     10.479900    2.783000    0.822800
H      9.080400    0.085400    0.502000
H      6.965500    3.812000    0.450400
H      8.592900    3.765900   -0.224100
H      8.359100    3.687100    1.522200
H      6.842700    0.081500    0.313200
H      5.282700    2.727800    0.296100
H      4.511700   -0.222600    0.137900
H      3.051900    3.185000    1.020800
H      1.633900    2.945400    0.002600
H      3.208200    3.227300   -0.736300
H      2.325600   -0.720100    0.006500
H      0.217100    1.518700   -0.062700
H      0.087300   -1.526400   -0.110500
H     -1.993900    0.737800   -0.178800
H     -2.907400   -3.172900    0.649700
H     -1.375800   -2.940500   -0.191200
H     -2.860500   -3.167300   -1.113800
H     -4.175100    0.295100   -0.274100
H     -5.053400   -2.629400   -0.300000
H     -6.496400    0.082500   -0.354900
H     -6.809300   -3.638300   -0.354700
H     -8.343600   -3.477600    0.498500
H     -8.311600   -3.485500   -1.264500
H     -8.726100    0.191900   -0.423200
H    -10.301200   -2.426600   -0.428800
H    -11.067000    0.554400   -0.485000
H    -12.631400   -2.836300    0.457800
H    -12.494500   -2.898500   -1.296200
H    -14.032200   -2.463500   -0.550800
H    -13.305600    1.066300   -0.783700
H    -14.449900   -0.220400   -1.191000
H    -14.658600   -0.787500    1.230800
H    -13.531000    0.511500    1.621300
H    -15.112000    2.215300    1.109700
H    -17.480300   -0.457000   -0.725400
H    -16.599200   -1.196100    0.611000
H    -18.216100   -0.531800    0.870400
H    -18.454800    1.900400    1.445300
H    -18.240000    2.094700   -0.289600
H    -17.243600    3.032300    0.832200
