96

C     17.920444   -1.808807   -0.185588
C     16.651515   -1.060077   -0.500135
C     15.941707   -1.539628   -1.735839
C     16.235198   -0.055036    0.295793
C     15.029083    0.829441    0.121061
C     13.981948    0.561733    1.209567
C     12.761199    1.460719    1.086807
C     13.022401    2.921701    1.352434
C     11.557511    0.926887    0.794806
C     10.310313    1.645270    0.625281
C      9.130486    1.028645    0.436536
C      7.827039    1.681059    0.254881
C      7.823050    3.186692    0.132975
C      6.720397    0.905701    0.202548
C      5.345922    1.349010    0.058603
C      4.298476    0.506259    0.024124
C      2.885379    0.887817   -0.098303
C      2.580060    2.362853   -0.216287
C      1.949796   -0.087151   -0.095337
C      0.512861    0.085507   -0.177740
C     -0.358145   -0.937871   -0.186920
C     -1.791013   -0.722366   -0.249148
C     -2.775723   -1.646494   -0.262645
C     -2.550464   -3.137866   -0.226769
C     -4.162252   -1.168202   -0.307145
C     -5.278518   -1.918608   -0.325414
C     -6.603702   -1.326395   -0.353919
C     -7.796792   -1.959401   -0.372850
C     -7.972630   -3.457695   -0.379894
C     -9.012145   -1.137744   -0.383000
C    -10.283760   -1.573408   -0.405314
C    -11.409581   -0.660938   -0.403976
C    -12.720562   -0.974551   -0.444855
C    -13.293295   -2.365594   -0.533738
C    -13.755197    0.139088   -0.433814
C    -14.494793    0.245193    0.904821
C    -15.357623    1.477338    0.960118
C    -16.695118    1.554433    0.824566
C    -17.600326    0.390774    0.529114
C    -17.404995    2.876679    0.955603
H     18.625300   -1.728249   -1.021692
H     17.699330   -2.867200   -0.012306
H     18.420317   -1.422745    0.710004
H     15.824633   -2.628354   -1.702668
H     16.523714   -1.281862   -2.627449
H     14.939891   -1.119084   -1.849694
H     16.835976    0.192017    1.171789
H     14.577070    0.718769   -0.869584
H     15.374845    1.869398    0.175483
H     13.684091   -0.494824    1.166431
H     14.426643    0.705089    2.204042
H     13.487442    3.390416    0.478691
H     13.699212    3.037157    2.206547
H     12.119460    3.485746    1.601096
H     11.492328   -0.151969    0.653380
H     10.356667    2.727675    0.652522
H      9.117531   -0.060928    0.427299
H      6.845034    3.608894   -0.100857
H      8.491069    3.508355   -0.674687
H      8.154661    3.649535    1.068785
H      6.837445   -0.174537    0.295387
H      5.174127    2.416856   -0.007968
H      4.494040   -0.563831    0.099250
H      2.913676    2.895894    0.681184
H      1.518728    2.591005   -0.336511
H      3.085140    2.790044   -1.090868
H      2.274305   -1.124745   -0.011738
H      0.123982    1.097265   -0.220596
H      0.012050   -1.955914   -0.140593
H     -2.075672    0.330638   -0.280463
H     -3.007812   -3.571106    0.670463
H     -1.495555   -3.421791   -0.210724
H     -2.988985   -3.613361   -1.110944
H     -4.278768   -0.083565   -0.323473
H     -5.206557   -3.000348   -0.310039
H     -6.599425   -0.235094   -0.351213
H     -7.030953   -4.010928   -0.365298
H     -8.539150   -3.781597    0.501158
H     -8.507763   -3.775188   -1.282317
H     -8.844432   -0.060530   -0.369141
H    -10.496043   -2.636541   -0.418264
H    -11.140878    0.396034   -0.354637
H    -13.884978   -2.592622    0.357911
H    -12.535846   -3.146565   -0.626618
H    -13.943376   -2.447667   -1.412074
H    -13.272938    1.100450   -0.658228
H    -14.473215   -0.025646   -1.248456
H    -15.079389   -0.660509    1.095530
H    -13.769150    0.310430    1.726373
H    -14.803089    2.395388    1.154841
H    -18.261860    0.632623   -0.310114
H    -17.059432   -0.517020    0.249496
H    -18.221459    0.165824    1.401013
H    -18.136976    2.833556    1.768645
H    -17.928131    3.122451    0.026332
H    -16.715027    3.697842    1.174296
