34
 xtb: 6.6.1 (8d0f1dd)
C      5.656500    0.930300   -0.994200
C      4.329600    0.333300   -0.675200
C      3.166300    1.105800   -0.700600
C      1.948300    0.513200   -0.398200
C      1.924300   -0.848800   -0.074500
C      3.143500   -1.525900   -0.078400
N      4.299600   -0.961000   -0.366600
C      0.679000   -1.568600    0.261800
O      0.714900   -2.764800    0.538900
C     -0.549300   -0.776300    0.239700
C     -0.538900    0.592500   -0.084100
C      0.706700    1.309600   -0.420000
O      0.715100    2.499900   -0.702200
C     -1.706000    1.343200   -0.104300
C     -2.928100    0.745900    0.200500
C     -2.958900   -0.609500    0.523600
C     -1.799200   -1.377900    0.548800
O     -1.791500   -2.679000    0.853700
C     -3.009400   -3.337000    1.170300
O     -4.112900    1.378600    0.210800
C     -4.162800    2.761900   -0.108700
H      5.645200    1.344100   -2.000000
H      5.874600    1.741000   -0.302600
H      6.427800    0.171300   -0.920800
H      3.194900    2.155300   -0.951100
H      3.165900   -2.579600    0.166800
H     -1.622000    2.386900   -0.361500
H     -3.920000   -1.037400    0.753300
H     -3.702300   -3.305100    0.327100
H     -3.471900   -2.899500    2.057300
H     -2.723100   -4.366000    1.373500
H     -3.807700    2.942200   -1.125200
H     -3.575500    3.349100    0.599900
H     -5.212900    3.032300   -0.031100
