53
 xtb: 6.6.1 (8d0f1dd)
O     -1.776700   -0.169600    1.960500
C     -2.190900   -0.290700    0.800400
C     -1.355400   -0.837300   -0.268700
O     -0.087600   -1.247000   -0.045500
C     -1.770100   -0.975000   -1.546200
C     -0.655000   -1.585000   -2.358500
O     -0.921700   -2.890200   -2.787100
C      0.502100   -1.580000   -1.318600
C      1.208600   -2.911700   -1.153300
O      2.269600   -3.159900   -2.016600
C      2.597400   -2.869900   -0.672200
C      3.182700   -1.537200   -0.403700
C      4.341200   -1.382300    0.336100
C      4.877900   -0.113000    0.534600
C      6.079900    0.110500    1.277700
C      6.561600    1.359300    1.430200
C      7.797500    1.734900    2.165900
O      5.923000    2.439100    0.892500
C      4.789800    2.329500    0.183400
O      4.297000    3.370200   -0.252800
C      4.227600    1.012500   -0.021500
C      3.034200    0.864700   -0.759200
O      2.370300    1.897600   -1.288600
C      2.527400   -0.426800   -0.939800
O      1.368900   -0.550200   -1.686900
C     -3.096000   -0.623300   -1.995700
O     -3.449200   -0.794800   -3.179000
C     -3.962900   -0.072700   -0.975500
C     -3.527600    0.090500    0.372900
C     -4.396900    0.627600    1.331400
C     -5.731900    1.014700    0.949800
O     -6.467000    1.513600    1.942800
C     -7.799200    1.927900    1.672900
C     -6.137500    0.849400   -0.351300
C     -5.271800    0.309200   -1.321200
O     -5.756400    0.185600   -2.546600
O     -4.078600    0.810900    2.598100
H     -0.359400   -0.937900   -3.195400
H     -1.586700   -2.861200   -3.492800
H      0.556400   -3.746700   -0.927800
H      2.993700   -3.709100   -0.112900
H      4.834500   -2.246100    0.749300
H      6.594900   -0.729100    1.708800
H      7.558000    2.464200    2.936700
H      8.502500    2.203500    1.482300
H      8.250500    0.859000    2.614600
H      2.858800    2.733200   -1.085800
H     -8.403500    1.087700    1.326800
H     -8.179500    2.293200    2.623300
H     -7.813400    2.729000    0.932000
H     -7.125000    1.122000   -0.683800
H     -5.062000   -0.206300   -3.141400
H     -3.144100    0.513600    2.761700
