34
 xtb: 6.6.1 (8d0f1dd)
C     -4.253700    2.782700   -1.151400
O     -4.250700    1.402500   -0.813400
C     -3.089200    0.816100   -0.505600
C     -1.875200    1.420900   -0.478800
C     -0.709600    0.685100   -0.133700
N      0.451000    1.283400   -0.113000
C      1.548400    0.549600    0.221600
C      1.440300   -0.822600    0.542700
C      2.571200   -1.556000    0.887700
C      3.798600   -0.930700    0.908200
C      3.927800    0.428100    0.594500
C      2.809500    1.159700    0.257100
C      5.297100    1.065600    0.615900
O      6.146600    0.543400    1.612600
O      0.238400   -1.448000    0.521600
C     -0.859300   -0.719700    0.184300
C     -2.076000   -1.356500    0.163600
C     -3.272400   -0.624200   -0.179600
O     -4.409500   -1.114900   -0.214400
O     -2.037500   -2.685800    0.499400
C     -3.204000   -3.488800    0.440100
H     -3.892000    3.384900   -0.315900
H     -3.640500    2.964300   -2.036100
H     -5.293300    3.020600   -1.361500
H     -1.735200    2.462700   -0.710700
H      2.460200   -2.600500    1.128200
H      4.685800   -1.485500    1.171900
H      2.870900    2.206800    0.010600
H      5.802400    0.852100   -0.332200
H      5.201400    2.153600    0.712600
H      5.801400    0.781600    2.483700
H     -2.860200   -4.483200    0.717800
H     -3.628100   -3.504000   -0.565300
H     -3.964800   -3.143100    1.141700
