65

C      1.592052   -1.571540   -2.096923
C      2.008179   -0.125684   -2.109821
C      3.484502    0.129738   -1.848042
C      3.837214    0.348439   -0.369446
C      3.864901   -0.920455    0.439825
C      3.114876   -1.236822    1.513615
C      2.033757   -0.373983    2.102558
C      3.325413   -2.543256    2.233669
C      1.189383    0.916668   -2.366047
C     -0.289891    0.917272   -2.649084
N     -0.973997    1.759533   -1.651275
C     -1.461210    1.240616   -0.436327
C     -2.167921    2.231383    0.500291
C     -2.687219    1.726594    1.811138
C     -3.301213    2.616289    2.796689
O     -4.598940    2.316843    2.998220
O     -2.751016    3.515430    3.405240
C     -2.545291    0.431305    2.115810
O     -2.937181   -0.194865    3.277871
N     -2.345658    3.484418    0.209567
C     -1.826332    3.967660   -1.001076
C     -2.011224    5.335160   -1.250336
C     -1.517800    5.925788   -2.407868
C     -0.826491    5.147457   -3.324553
C     -0.635833    3.780210   -3.086356
C     -1.134557    3.149221   -1.928822
C     -1.369076   -0.042424   -0.027735
C     -1.933305   -0.482921    1.218956
C     -1.966233   -1.703992    1.755628
C     -1.472423   -2.974791    1.225302
C     -1.830357   -3.406914   -0.060957
C     -1.351017   -4.618257   -0.565258
C     -0.517462   -5.416250    0.214206
C     -0.168435   -5.007780    1.499273
C     -0.646023   -3.795471    2.003439
C     -2.590343   -1.509596    3.085721
O     -2.769151   -2.390190    3.911846
H      1.587550   -1.963177   -1.076098
H      0.598645   -1.735900   -2.520355
H      2.286156   -2.171600   -2.695063
H      3.792301    1.028076   -2.401194
H      4.086388   -0.684026   -2.272658
H      3.180753    1.108698    0.063408
H      4.848622    0.773141   -0.323633
H      4.618325   -1.636279    0.109863
H      1.764523    0.477969    1.474597
H      2.348373    0.008785    3.079031
H      1.121020   -0.961649    2.244035
H      3.580701   -2.360134    3.282552
H      2.414518   -3.147922    2.197752
H      4.134561   -3.135859    1.794157
H      1.628078    1.914469   -2.355654
H     -0.710585   -0.091858   -2.639704
H     -0.476446    1.247503   -3.676338
H     -4.887977    2.980413    3.659118
H     -2.543671    5.938412   -0.519046
H     -1.666798    6.987072   -2.584958
H     -0.427437    5.600545   -4.228771
H     -0.072212    3.240191   -3.838977
H     -0.852479   -0.784339   -0.621952
H     -2.498782   -2.813130   -0.681047
H     -1.637187   -4.944021   -1.562345
H     -0.148586   -6.362308   -0.174108
H      0.471308   -5.635264    2.114794
H     -0.364341   -3.502637    3.013653
