133
 xtb: 6.6.1 (8d0f1dd)
C    -17.590600   -1.176200    1.807900
C    -17.227200    0.160200    1.226800
C    -16.632900    1.089800    1.965300
C    -16.167200    2.445600    1.536100
C    -14.652300    2.436800    1.243300
C    -14.337400    1.586900    0.042400
C    -14.014400    0.305700    0.184900
C    -13.699400   -0.660600   -0.915300
C    -12.234600   -0.567700   -1.390500
C    -11.267400   -0.951600   -0.305200
C    -10.809300   -2.195800   -0.215700
C     -9.837800   -2.682800    0.825200
C     -8.439600   -2.439900    0.347000
C     -7.448900   -1.768100    0.951200
C     -6.174700   -1.656200    0.262300
C     -5.092200   -1.007100    0.716800
C     -3.822100   -0.888500    0.013600
C     -3.107200    0.308500    0.128500
C     -1.897900    0.504000   -0.544400
O     -1.325800    1.734300   -0.368500
C     -1.361900   -0.503200   -1.341500
C     -2.048200   -1.713500   -1.415200
C     -3.256700   -1.911100   -0.753400
O     -3.810600   -3.163200   -0.880000
O     -1.516000   -2.739000   -2.162500
C     -0.086100   -0.321200   -2.131100
C      1.164600   -0.456400   -1.293700
C      1.683700   -1.692400   -0.919800
C      2.870600   -1.771500   -0.185900
O      3.369500   -2.996700    0.151300
C      3.578900   -0.622700    0.184000
C      3.027600    0.616300   -0.155600
C      1.843600    0.689000   -0.883600
O      1.329000    1.923100   -1.207100
O      3.572300    1.821300    0.221700
C      4.825800   -0.784800    0.918300
C      5.909200   -0.002600    0.791200
C      7.152100   -0.172900    1.517100
C      8.215000    0.625700    1.340300
C      8.380300    1.778900    0.395900
C      9.682700    1.636900   -0.339100
C     10.794900    2.322000   -0.098800
C     12.055200    2.048200   -0.869900
C     13.075900    1.280300   -0.008400
C     14.340400    1.040300   -0.772300
C     15.468000    1.731700   -0.649800
C     16.681500    1.387500   -1.467000
C     17.755600    0.689800   -0.609500
C     17.235500   -0.594400   -0.037500
C     17.247000   -1.788200   -0.618500
C     16.655600   -2.990900    0.058100
C     17.820200   -2.074400   -1.974700
C     15.633600    2.861000    0.330400
C     10.890700    3.387400    0.959000
C      7.219900   -1.291200    2.520400
O      1.115500   -2.895100   -1.239700
O     -3.621800    1.318600    0.889400
C     -7.554200   -1.134700    2.307100
C    -10.872800    0.121400    0.668300
C    -14.435700    2.293300   -1.276800
C    -17.599200    0.306400   -0.217800
H    -18.664700   -1.342200    1.733700
H    -17.298700   -1.246400    2.852300
H    -17.093900   -1.970600    1.252200
H    -16.400400    0.851600    2.996800
H    -16.359500    3.159100    2.341000
H    -16.704500    2.787000    0.651500
H    -14.131600    2.051800    2.122200
H    -14.320800    3.462300    1.068000
H    -13.948800   -0.098900    1.186100
H    -14.347000   -0.479500   -1.776300
H    -13.883100   -1.677800   -0.563400
H    -12.111100   -1.236400   -2.245200
H    -12.034600    0.452800   -1.720100
H    -11.107000   -2.925600   -0.957300
H    -10.025800   -2.190600    1.777600
H     -9.976300   -3.759300    0.962600
H     -8.244900   -2.860000   -0.633100
H     -6.148200   -2.115700   -0.718300
H     -5.132400   -0.451900    1.642700
H     -0.446300    1.787700   -0.790400
H     -4.505500   -3.279000   -0.215500
H     -2.129600   -3.490600   -2.111300
H     -0.074000   -1.063700   -2.931100
H     -0.079200    0.667500   -2.593500
H      2.756000   -3.669000   -0.190100
H      1.938100    2.596700   -0.861100
H      4.213400    1.679300    0.933500
H      4.848100   -1.658900    1.552600
H      5.889200    0.804200    0.072100
H      9.099300    0.435300    1.936700
H      8.377100    2.707400    0.971600
H      7.567200    1.820800   -0.328700
H      9.684800    0.872900   -1.106100
H     12.505300    2.990500   -1.191800
H     11.831700    1.459100   -1.761300
H     12.634700    0.321700    0.275400
H     13.278900    1.842500    0.902300
H     14.289400    0.243900   -1.503900
H     17.107800    2.298600   -1.894700
H     16.400400    0.721800   -2.284600
H     18.636300    0.512200   -1.229000
H     18.048800    1.352100    0.206600
H     16.767500   -0.501300    0.934300
H     15.893600   -3.441300   -0.576700
H     17.425400   -3.741600    0.234200
H     16.204100   -2.724800    1.010000
H     18.466400   -2.949800   -1.930200
H     18.389900   -1.237400   -2.364900
H     17.014000   -2.294500   -2.674400
H     16.580300    3.370000    0.171900
H     15.612800    2.488800    1.354400
H     14.832300    3.589000    0.221800
H     11.872500    3.852100    0.945100
H     10.722600    2.968100    1.949600
H     10.145600    4.163800    0.791800
H      6.452800   -1.167300    3.282900
H      7.056700   -2.248600    2.028300
H      8.191900   -1.312900    3.005500
H      0.247500   -2.780700   -1.673100
H     -3.003400    2.067100    0.842500
H     -7.346400   -0.068000    2.236500
H     -8.540400   -1.265900    2.738100
H     -6.822500   -1.576700    2.981500
H     -9.795500    0.278200    0.637700
H    -11.139400   -0.160600    1.686000
H    -11.371700    1.057100    0.434800
H    -14.580500    1.600000   -2.099900
H    -15.260200    3.003500   -1.266300
H    -13.520100    2.855800   -1.464100
H    -17.388500    1.298400   -0.600600
H    -17.038400   -0.414200   -0.811800
H    -18.659500    0.095300   -0.352100
