42
 xtb: 6.6.1 (8d0f1dd)
C      1.869400   -3.228000    1.066900
C      2.017500   -1.847800    0.557900
C      1.194700   -1.116700   -0.242900
C      1.809000    0.172700   -0.470300
O      1.398400    1.124300   -1.150800
C      3.057600    0.092200    0.297900
C      4.033000    1.005800    0.495900
C      5.206400    0.700700    1.358000
C      3.983100    2.351900   -0.127600
O      3.133700   -1.163100    0.883700
O     -0.003900   -1.595900   -0.745800
C     -0.993100   -0.633500   -0.938400
C     -2.229100   -1.353400   -1.496800
C     -3.375900   -0.344100   -1.613500
C     -3.586000    0.365700   -0.270200
C     -2.259800    0.971200    0.214500
O     -1.274200   -0.037700    0.308100
C     -2.402800    1.616400    1.599800
O     -3.068200    2.846900    1.553500
O     -4.538200    1.390100   -0.375300
O     -4.587300   -0.965900   -1.957700
O     -1.994200   -1.885600   -2.772900
H      0.865800   -3.579400    0.852500
H      2.596100   -3.881400    0.587100
H      2.058200   -3.245800    2.137700
H      5.240900   -0.352400    1.616800
H      5.138900    1.287200    2.273200
H      6.123400    0.992100    0.851900
H      4.194900    3.114100    0.618500
H      4.752900    2.421400   -0.895000
H      3.017900    2.539800   -0.587300
H     -0.660900    0.141500   -1.653700
H     -2.509500   -2.143900   -0.784600
H     -3.099600    0.401600   -2.376100
H     -3.915800   -0.389500    0.461500
H     -1.935900    1.742200   -0.503400
H     -1.403200    1.810800    1.994500
H     -2.915400    0.913400    2.269900
H     -3.898900    2.728000    1.062100
H     -5.332400    1.026400   -0.797400
H     -4.453800   -1.484200   -2.765200
H     -1.253700   -2.508200   -2.732300
