61

C      2.475328    2.472950    2.581017
C      1.948408    1.896554    1.317498
C      0.711166    2.073082    0.811510
C      0.586644    1.355171   -0.435871
C     -0.479843    1.208347   -1.228832
C     -1.837583    1.528180   -0.890813
C     -2.722796    0.601967   -0.456924
C     -3.998045    1.313333   -0.311453
C     -5.086349    0.604835    0.029497
N     -5.030676   -0.776363    0.272622
C     -3.789313   -1.431647    0.176177
C     -2.634012   -0.822953   -0.168590
C     -1.395297   -1.630968   -0.195941
O     -0.603767   -1.704064   -1.129764
O     -1.228502   -2.237197    1.011863
C     -0.065726   -3.054080    1.114413
C     -6.264195   -1.565965    0.507080
C     -6.680616   -2.423144   -0.711858
O     -7.684110   -2.000129   -1.357471
O     -5.989261   -3.472700   -0.903124
C     -3.804024    2.707290   -0.630562
C     -2.506705    2.828272   -0.971177
C     -4.865036    3.741264   -0.591800
C      1.850246    0.662408   -0.660844
C      2.218721   -0.275449   -1.608702
N      3.428542   -0.878348   -1.508984
C      4.283995   -0.551202   -0.503264
C      3.928704    0.388813    0.469807
C      2.682270    0.984296    0.417254
C      4.893720    0.646024    1.534165
O      4.767673    0.273690    2.684798
O      5.924072    1.327031    0.982922
C      6.932533    1.701714    1.927652
C      3.762198   -1.974880   -2.451372
C      3.293078   -3.284719   -1.867314
O      3.059694   -3.488769   -0.686885
O      3.165801   -4.256070   -2.793239
H      1.765074    3.183412    3.020236
H      2.650577    1.687652    3.321946
H      3.410402    3.014700    2.404388
H     -0.079863    2.663389    1.255438
H     -0.418610    0.631831   -2.147811
H     -6.075883    1.042127    0.113231
H     -3.847944   -2.496745    0.385065
H     -0.172480   -3.940822    0.483593
H      0.037584   -3.369705    2.154452
H      0.833114   -2.493210    0.841483
H     -6.109673   -2.232805    1.365992
H     -7.095945   -0.904695    0.787350
H     -2.015225    3.736798   -1.283747
H     -5.256048    3.855857    0.424457
H     -4.480367    4.715818   -0.914495
H     -5.694359    3.473395   -1.255424
H      1.553174   -0.596019   -2.402879
H      5.234273   -1.077566   -0.468152
H      7.449002    0.811369    2.300509
H      6.497463    2.273024    2.753441
H      7.659712    2.337380    1.410826
H      4.844858   -1.988436   -2.599175
H      3.258060   -1.767980   -3.400335
H      2.806166   -5.045341   -2.323883
