33
 xtb: 6.6.1 (8d0f1dd)
C      5.358900    0.857200   -0.629300
C      3.976600    0.305600   -0.608200
C      2.856000    1.060700   -0.599100
C      1.579500    0.431300   -0.413100
C      1.502700   -0.949200   -0.467500
C      2.739800   -1.719400   -0.840900
O      3.956300   -1.041200   -0.544900
C      0.297100   -1.625700   -0.227900
C     -0.865600   -0.887700    0.060900
C     -2.115700   -1.579200    0.302000
O     -2.204700   -2.827100    0.260300
C     -3.280400   -0.782500    0.602700
C     -3.243800    0.568600    0.659600
C     -1.985000    1.312900    0.412700
O     -1.980500    2.551200    0.469000
C     -0.804300    0.529600    0.115000
C      0.411700    1.193400   -0.115500
O      0.540800    2.511400   -0.074000
O     -4.269400    1.381400    0.929600
C     -5.545700    0.817700    1.191100
O      0.305000   -2.958100   -0.298800
H      5.836100    0.606300   -1.575100
H      5.344200    1.933600   -0.503900
H      5.944300    0.395900    0.162800
H      2.905200    2.133400   -0.628700
H      2.776500   -2.668000   -0.299400
H      2.717900   -1.940500   -1.920100
H     -4.187300   -1.340300    0.778300
H     -0.337800    2.924900    0.134900
H     -6.199000    1.666100    1.377600
H     -5.902300    0.251300    0.328400
H     -5.509300    0.171000    2.070200
H     -0.617700   -3.284600   -0.108600
