33

C      5.391538    0.882389   -0.756626
C      4.025943    0.288589   -0.602966
C      2.914766    1.038223   -0.541621
C      1.609413    0.416855   -0.320715
C      1.535804   -0.979104   -0.400683
C      2.779457   -1.749656   -0.766745
O      4.025645   -1.085497   -0.500583
C      0.303129   -1.616116   -0.219059
C     -0.851774   -0.871185    0.071392
C     -2.141160   -1.549530    0.272189
O     -2.227677   -2.770401    0.187633
C     -3.331746   -0.742377    0.577205
C     -3.293997    0.593269    0.672950
C     -1.994153    1.303690    0.462631
O     -1.911253    2.528072    0.533976
C     -0.780048    0.517996    0.161749
C      0.453325    1.162660   -0.041579
O      0.577854    2.530369    0.024954
O     -4.370698    1.410339    0.954705
C     -5.642508    0.811980    1.169027
O      0.281070   -2.981555   -0.348083
H      5.864480    0.508295   -1.670320
H      5.362644    1.975312   -0.815778
H      6.021149    0.607989    0.095892
H      2.960200    2.120732   -0.609664
H      2.816832   -2.691741   -0.209358
H      2.750723   -1.990105   -1.836348
H     -4.236911   -1.320335    0.715887
H     -0.299311    2.924257    0.236735
H     -6.360297    1.610922    1.377107
H     -5.979971    0.279604    0.273940
H     -5.619434    0.144459    2.036424
H     -0.633032   -3.308400   -0.184268
