29

C      4.497340    0.721773    0.336357
C      3.067446    0.546387   -0.085728
C      2.698700    0.712855   -1.428034
C      1.370904    0.549918   -1.819610
C      0.393743    0.218706   -0.876626
C      0.741536    0.049513    0.460397
C      2.076683    0.214701    0.846235
O      2.440343    0.052713    2.157198
O     -0.155412   -0.276025    1.451342
C     -1.474460   -0.445447    1.106389
C     -2.349360   -0.775232    2.144359
C     -3.707837   -0.965437    1.880679
C     -4.194310   -0.826508    0.579896
C     -3.322714   -0.497906   -0.454513
C     -1.962824   -0.307300   -0.191741
C     -1.012348    0.039672   -1.253492
O     -1.381301    0.175483   -2.417410
O     -3.865692   -0.377545   -1.704136
O      1.094736    0.729955   -3.147510
H      4.880295   -0.206359    0.772743
H      4.579408    1.529484    1.070782
H      5.138031    0.978790   -0.513754
H      3.443510    0.970691   -2.178163
H      1.635156   -0.172669    2.657252
H     -1.978302   -0.885305    3.160446
H     -4.389559   -1.222223    2.688397
H     -5.251275   -0.973982    0.371729
H     -3.144460   -0.145114   -2.330079
H      0.132022    0.586413   -3.283404
