93

C      9.997461    2.248526    2.582067
C     10.356313    1.460514    1.341092
C      9.480462    0.730445    0.608846
C      9.912809   -0.086360   -0.622896
C     11.451596   -0.245356   -0.689201
C     12.172789    1.077312   -0.429049
C     11.824256    1.573402    0.975462
O     13.603413    0.894116   -0.488478
C     14.142878    0.869571   -1.739624
O     13.514787    0.967908   -2.785796
C     15.628499    0.700315   -1.655171
C      9.309542   -1.508527   -0.590207
C      9.414753    0.624840   -1.901440
C      8.088188    0.749929    0.951163
C      6.918532    0.827885    1.213522
C      5.537039    1.019718    1.533753
C      4.633938    0.164409    1.010890
C      3.195088    0.271616    1.141666
C      2.333051   -0.658087    0.703771
C      0.901687   -0.458879    0.783256
C     -0.010280   -1.365856    0.396915
C     -1.428201   -1.066154    0.444679
C     -2.473139   -1.882569    0.185561
C     -2.338987   -3.343695   -0.160364
C     -3.814301   -1.295172    0.253845
C     -5.018939   -1.864996    0.109296
C     -6.252401   -1.165201    0.216261
C     -7.263496   -2.014591    0.065042
C     -6.627314   -3.333883   -0.134133
O     -7.229982   -4.383431   -0.295345
O     -5.258152   -3.206218   -0.126560
C     -8.677167   -1.772860    0.171216
C     -9.280915   -0.631517   -0.198209
C    -10.725991   -0.327336   -0.060746
C    -11.050055    0.918664    0.806463
O    -11.396553   -0.412766    1.207638
C    -12.257254    1.765068    0.484585
C    -12.621831    1.823412   -1.006856
C    -11.895764    0.828106   -1.920184
C    -11.649122   -0.555532   -1.282286
C    -12.979996   -1.235418   -0.886482
C    -11.000839   -1.466203   -2.352758
O    -12.353592    3.132760   -1.521672
C    -10.050220    1.542489    1.736031
C      5.210961    2.177724    2.441554
H     10.737026    2.061914    3.368691
H      9.023702    1.987737    3.003393
H     10.000344    3.318010    2.351039
H     11.793663   -0.980157    0.053829
H     11.755388   -0.664120   -1.657871
H     11.879127    1.840766   -1.160480
H     12.416279    1.027716    1.723558
H     12.144005    2.620927    1.053020
H     16.067756    1.552155   -1.128893
H     16.043322    0.658194   -2.665539
H     15.867956   -0.235759   -1.139761
H      9.682878   -2.111032   -1.430117
H      9.570639   -2.033366    0.334656
H      8.217843   -1.491560   -0.667882
H      9.778696    0.113668   -2.801203
H      9.753361    1.663114   -1.950428
H      8.319655    0.643442   -1.954269
H      4.993381   -0.659565    0.392017
H      2.803819    1.185347    1.581111
H      2.691012   -1.580654    0.251605
H      0.569961    0.505375    1.165864
H      0.311835   -2.329800    0.016415
H     -1.638349   -0.030241    0.716784
H     -2.935992   -3.962507    0.517415
H     -2.667970   -3.523107   -1.190130
H     -1.315989   -3.715073   -0.081801
H     -3.818636   -0.222203    0.458299
H     -6.339945   -0.107738    0.426181
H     -9.274385   -2.588118    0.578397
H     -8.686127    0.170351   -0.631817
H    -12.110031    2.781462    0.866451
H    -13.115731    1.369527    1.046933
H    -13.702156    1.672005   -1.106243
H    -12.465829    0.728892   -2.851791
H    -10.931030    1.263749   -2.223388
H    -13.612248   -1.412275   -1.766066
H    -12.798086   -2.205379   -0.406430
H    -13.567864   -0.634318   -0.181995
H    -11.674197   -1.613837   -3.204675
H    -10.069326   -1.041656   -2.747106
H    -10.772867   -2.457153   -1.942736
H    -12.926693    3.758727   -1.040667
H    -10.547721    1.913733    2.636647
H     -9.553718    2.390100    1.252984
H     -9.281506    0.836040    2.062080
H      5.939909    2.236049    3.258818
H      5.241594    3.120316    1.884905
H      4.229696    2.092177    2.916346
