44

C      6.169453   -1.695325    1.296659
C      4.886194   -1.086420    0.826526
C      4.785271    0.087519    0.186498
C      3.508293    0.642458   -0.169071
C      2.388908   -0.049016    0.083194
O      2.462707   -1.325539    0.699952
C      3.653236   -1.868225    1.093523
O      3.702907   -2.967138    1.640241
C      1.028278    0.395439   -0.247778
C     -0.028216   -0.067609    0.457677
C     -1.447648    0.271660    0.354769
C     -2.353460   -0.681436    0.659387
C     -3.808211   -0.502928    0.636390
C     -4.487248   -0.339824   -0.578213
C     -5.873204   -0.163997   -0.593312
C     -6.580271   -0.153561    0.616760
C     -5.911199   -0.323667    1.835854
C     -4.524698   -0.500119    1.839507
N     -8.034902    0.041998    0.607285
O     -8.610920    0.145951    1.700545
O     -8.601682    0.095179   -0.493991
C     -1.831050    1.698876    0.048808
C      0.906902    1.313048   -1.440363
O      5.878028    0.886805   -0.076997
C      6.286425    0.772392   -1.441932
H      6.339867   -2.657606    0.803096
H      7.036806   -1.060492    1.087779
H      6.140125   -1.858842    2.378851
H      3.490430    1.632300   -0.615094
H      0.169049   -0.796909    1.247844
H     -2.033963   -1.685861    0.934514
H     -3.937878   -0.350336   -1.519169
H     -6.381498   -0.042303   -1.548784
H     -6.448390   -0.326229    2.782171
H     -4.005738   -0.628418    2.788724
H     -2.772073    1.983859    0.532507
H     -1.079801    2.402277    0.423815
H     -1.954262    1.851171   -1.027767
H      1.053423    2.356378   -1.142003
H     -0.061087    1.217883   -1.937821
H      1.646076    1.065557   -2.211875
H      6.500810   -0.269298   -1.703952
H      7.206151    1.351804   -1.567303
H      5.528061    1.188545   -2.114186
