40
 xtb: 6.6.1 (8d0f1dd)
C     -1.890500    1.444100   -1.601500
C     -1.345200    0.305100   -1.058200
C     -1.639600   -0.016900    0.264800
C     -2.528200    0.809300    0.989000
C     -3.081000    1.961700    0.445600
C     -2.743600    2.275700   -0.859300
O     -3.228000    3.383400   -1.486400
N     -2.714500    0.252700    2.224400
C     -1.997700   -0.894400    2.310500
C     -1.294900   -1.105800    1.140400
C     -0.443600   -2.228100    0.880100
C      0.642000   -2.371200    0.054600
C      1.025500   -3.798700    0.051900
O      1.917500   -4.359100   -0.556200
N      0.167500   -4.434400    0.928000
C     -0.740100   -3.547300    1.474700
O     -1.604900   -3.860800    2.270700
C      1.425300   -1.407300   -0.657400
C      2.134900   -1.658100   -1.816300
N      2.774100   -0.536500   -2.225900
C      2.528900    0.473700   -1.336600
C      1.682500   -0.031400   -0.322400
C      1.345200    0.794200    0.745600
C      1.804600    2.092500    0.755000
C      2.612300    2.591300   -0.276000
C      2.994200    1.779300   -1.332100
O      3.063700    3.876900   -0.269500
H     -1.679900    1.728200   -2.620200
H     -0.709300   -0.330200   -1.651500
H     -3.756000    2.580700    1.016700
H     -3.814400    3.879300   -0.895800
H     -3.302500    0.625300    2.952000
H     -2.000400   -1.498300    3.196300
H      0.198100   -5.420900    1.140100
H      2.192300   -2.575700   -2.367800
H      3.346200   -0.460600   -3.051000
H      0.742300    0.424700    1.558100
H      1.542500    2.742400    1.576900
H      3.636500    2.169500   -2.104200
H      2.738000    4.345800    0.512900
