30

C      5.097042    0.841014   -0.273491
C      4.683673    0.099760    0.830953
C      3.343231   -0.273494    0.962649
C      2.399970    0.085685   -0.012685
C      2.830968    0.841540   -1.113497
C      4.171261    1.213866   -1.244844
C      0.977956   -0.289980    0.111751
C      0.606862   -1.520313    0.496124
C     -0.824881   -1.834935    0.590120
O     -1.224432   -2.939467    0.942421
C     -1.768628   -0.768326    0.244596
C     -1.254932    0.469284   -0.150172
O      0.092441    0.722623   -0.226515
C     -2.117422    1.514629   -0.489662
C     -3.489466    1.305338   -0.429142
C     -4.002554    0.073595   -0.036233
C     -3.149515   -0.970092    0.302794
O     -3.731441   -2.153785    0.679430
O     -5.360212   -0.094915    0.011129
O     -4.336283    2.322627   -0.760083
H      6.139379    1.132534   -0.374717
H      5.403790   -0.184020    1.594400
H      3.045453   -0.836172    1.844530
H      2.125033    1.143690   -1.884641
H      4.490345    1.796555   -2.105331
H      1.300123   -2.315860    0.736295
H     -1.726592    2.480147   -0.796735
H     -3.006510   -2.789799    0.885812
H     -5.480393   -1.021750    0.308212
H     -5.234267    1.950023   -0.643468
