32

O      1.349190   -1.895675   -0.493291
C      1.100853   -0.709549   -0.321695
N     -0.217465   -0.264978   -0.124735
C     -1.412239   -0.970505   -0.068108
C     -1.680860   -2.344250   -0.190833
C     -3.007626   -2.771167   -0.087519
C     -4.037953   -1.862741    0.131221
C     -3.767773   -0.496058    0.252938
C     -2.438478   -0.034034    0.153118
C     -1.841830    1.261309    0.229371
C     -0.489752    1.066450    0.053462
C      0.435339    2.082143    0.059513
C      1.815871    1.682039   -0.138580
C      2.149323    0.381762   -0.311388
C      3.574105   -0.062385   -0.516039
O      3.672892   -0.883360   -1.676072
C      4.148958   -0.802454    0.687418
N      0.039153    3.348251    0.249408
C     -1.289671    3.567033    0.423974
C     -2.278646    2.580104    0.425699
H     -0.885521   -3.065005   -0.362771
H     -3.235019   -3.831120   -0.180711
H     -5.063155   -2.217230    0.207790
H     -4.581740    0.203114    0.423036
H      2.552823    2.477960   -0.137891
H      4.208521    0.810845   -0.708921
H      3.142417   -1.688355   -1.505232
H      3.621386   -1.742877    0.878701
H      5.194772   -1.069929    0.499578
H      4.105449   -0.188307    1.592568
H     -1.560563    4.610348    0.571014
H     -3.322763    2.828622    0.571346
