36

C     -5.514589   -0.309947    0.208888
C     -4.039428   -0.034176    0.147625
C     -3.126146   -1.099428    0.124343
C     -1.763703   -0.822755    0.099347
C     -1.298523    0.509515    0.108364
C      0.165775    0.408064    0.077939
C      0.490205   -1.006301    0.053019
C     -0.621941   -1.759627    0.065245
N     -0.779156   -3.104395    0.050587
C      1.131265    1.342454    0.070894
O      0.901458    2.699451    0.093524
C      2.557475    0.934001    0.036850
C      3.577347    1.901561    0.028850
C      4.924807    1.530915   -0.003029
C      5.278277    0.184745   -0.027523
C      4.285726   -0.789960   -0.020172
O      4.716803   -2.090369   -0.045638
C      2.929535   -0.427576    0.011762
C      1.884888   -1.483415    0.019044
O      2.190837   -2.673274   -0.002467
C     -2.196101    1.563520    0.145517
O     -1.744092    2.851939    0.160805
C     -3.566972    1.293527    0.170334
H     -5.757961   -1.250194   -0.296968
H     -6.080558    0.483106   -0.290975
H     -5.839360   -0.374495    1.251860
H     -3.479892   -2.125433    0.125278
H     -1.689940   -3.538458    0.058803
H      0.059155   -3.682292    0.025953
H     -0.068182    2.838658    0.117611
H      3.329146    2.961567    0.047533
H      5.697591    2.295713   -0.008689
H      6.324997   -0.106696   -0.052330
H      3.924685   -2.673603   -0.037265
H     -2.516504    3.446089    0.186914
H     -4.286923    2.107571    0.207339
