37

C     -4.017296   -3.456636    1.779678
C     -4.292928   -3.842008    0.469851
C     -3.571258   -3.312778   -0.604003
C     -2.566114   -2.383065   -0.313453
C     -2.263305   -1.978606    0.986404
C     -3.006286   -2.527671    2.052077
C     -1.188249   -1.038037    0.902375
C     -0.460555   -0.291495    1.837612
C      0.576798    0.538337    1.412410
C      0.923062    0.682719    0.066334
C      2.100712    1.513628    0.032140
C      3.000147    1.933093   -0.974135
C      4.070698    2.776525   -0.650568
C      4.270612    3.197394    0.659214
C      3.421345    2.773804    1.682556
C      2.359115    1.927444    1.340420
N      1.416896    1.338225    2.145616
C      0.128370   -0.002276   -0.873313
C     -0.872516   -0.881844   -0.442387
N     -1.711800   -1.710618   -1.153869
C      0.279845    0.203153   -2.323711
O      0.259508   -0.742488   -3.103651
C      0.300689    1.641333   -2.849478
O     -0.354395    2.553032   -2.386193
O      1.103561    1.795849   -3.908905
H     -4.590833   -3.881635    2.599704
H     -5.081242   -4.566513    0.277927
H     -3.787664   -3.615825   -1.623424
H     -2.797304   -2.235623    3.076645
H     -0.699353   -0.378538    2.894543
H      2.900491    1.591597   -1.999057
H      4.757270    3.095608   -1.431240
H      5.108010    3.850852    0.893199
H      3.592117    3.084957    2.708348
H      1.377061    1.443576    3.148930
H     -1.672074   -1.827499   -2.158784
H      0.986863    2.732026   -4.169812
