34

C      5.386028   -0.389324   -0.042685
C      3.973480    0.119695   -0.099188
C      3.722797    1.495427   -0.162847
C      2.414607    1.972580   -0.215414
C      1.329518    1.086600   -0.205535
C      1.565211   -0.287458   -0.142322
C      2.886727   -0.765523   -0.089385
O      3.177081   -2.105045   -0.026248
C      0.425458   -1.227397   -0.131561
O      0.638200   -2.434968   -0.075877
C     -0.954609   -0.711321   -0.187540
C     -1.190603    0.658285   -0.250573
C     -0.054218    1.596022   -0.261332
O     -0.263582    2.806957   -0.317082
C     -2.511121    1.120932   -0.302837
C     -3.583766    0.227266   -0.292327
C     -3.346359   -1.144984   -0.229148
C     -2.029566   -1.610301   -0.176866
O     -4.298333   -2.125295   -0.212010
C     -5.657603   -1.706880   -0.263401
O     -2.835947    2.450061   -0.366400
O      2.273508    3.332871   -0.275695
H      5.548130   -0.956313    0.879698
H      6.109685    0.432476   -0.058905
H      5.592698   -1.030792   -0.905442
H      4.546577    2.206795   -0.171963
H      2.333394   -2.611936   -0.026165
H     -4.588617    0.635692   -0.334449
H     -1.847905   -2.683338   -0.127564
H     -5.870855   -1.173521   -1.195633
H     -6.284197   -2.603688   -0.241622
H     -5.915915   -1.098203    0.609406
H     -2.005422    2.976122   -0.367619
H      1.315518    3.548504   -0.308610
