106

C      8.786274   -2.844730    0.757503
C      9.466103   -1.751021    0.567182
C     10.177924   -0.680098    0.312804
C     11.542613   -0.796027   -0.403621
C     11.331391   -0.822609   -1.930025
C     12.275974   -2.111526   -0.025982
C     12.493335    0.358054   -0.006851
C     11.843323    1.736417   -0.079424
C     10.624519    1.765121    0.841864
C      9.575668    0.723331    0.437966
C      8.405976    0.790613    1.435803
O      9.063404    1.080678   -0.847402
O     12.824626    2.691083    0.380351
C     12.604525    3.988321    0.030860
C     13.678856    4.872294    0.585321
O     11.653314    4.405450   -0.615002
C      7.576861   -3.102921   -0.009631
C      7.805541   -3.973227   -1.218453
C      6.402408   -2.575747    0.388896
C      5.126998   -2.681534   -0.293645
C      3.989643   -2.162063    0.197624
C      2.665787   -2.200347   -0.439355
C      2.592812   -2.766199   -1.838456
C      1.612168   -1.715031    0.253114
C      0.224616   -1.666373   -0.163900
C     -0.750978   -1.205216    0.636875
C     -2.146513   -1.147361    0.246697
C     -3.205528   -0.810351    1.016249
C     -3.112551   -0.432578    2.476058
C     -4.545963   -0.810509    0.414003
C     -5.698554   -0.514906    1.041627
C     -6.995072   -0.524866    0.386478
C     -8.180735   -0.351767    1.007720
C     -8.374262   -0.201074    2.490253
C     -9.416426   -0.377172    0.129191
O     -9.366092   -0.862442   -0.996722
C    -10.705606    0.190098    0.721442
C    -11.761596    0.664774   -0.259696
O    -12.473652   -0.398155   -0.917094
C    -13.253494    0.320004    0.036747
C    -13.661168   -0.543454    1.205625
C    -14.386162    1.094573   -0.582952
C    -13.982863    2.272956   -1.469394
O    -14.990156    3.298557   -1.373406
C    -12.638098    2.879590   -1.084863
C    -11.457497    1.879142   -1.167683
C    -11.218408    1.438874   -2.629825
C    -10.203015    2.663045   -0.714911
H      9.284983   -3.707202    1.181339
H     12.290301   -0.855139   -2.457719
H     10.765799   -1.708207   -2.242842
H     10.803551    0.057649   -2.299520
H     11.720931   -3.003601   -0.339683
H     12.438053   -2.178849    1.059786
H     13.259289   -2.161184   -0.517398
H     13.394936    0.344978   -0.637377
H     12.864748    0.201200    1.019664
H     11.576214    1.959541   -1.119042
H     10.184604    2.769337    0.814620
H     10.944415    1.610400    1.881202
H      8.039788    1.820013    1.544067
H      8.699751    0.429639    2.428419
H      7.547045    0.209168    1.079897
H      8.597624    1.933535   -0.760553
H     13.301873    5.377573    1.475535
H     13.971054    5.607597   -0.169460
H     14.567103    4.296807    0.845327
H      8.361741   -4.875200   -0.944574
H      6.877156   -4.300205   -1.686679
H      8.379377   -3.431868   -1.976601
H      6.391531   -1.991745    1.308587
H      5.125458   -3.194327   -1.247208
H      4.029312   -1.663674    1.163680
H      3.340321   -2.294382   -2.480455
H      2.777273   -3.845232   -1.821512
H      1.627299   -2.602833   -2.323469
H      1.791948   -1.320876    1.255647
H     -0.027812   -2.026609   -1.153670
H     -0.478446   -0.844041    1.623417
H     -2.328198   -1.415667   -0.795292
H     -3.731797   -1.103722    3.091166
H     -3.436313    0.599256    2.637782
H     -2.098571   -0.507998    2.889549
H     -4.593625   -1.086604   -0.639582
H     -5.679274   -0.232880    2.089643
H     -6.970475   -0.670010   -0.696389
H     -8.455614    0.865017    2.747592
H     -7.544502   -0.623310    3.062020
H     -9.274027   -0.722234    2.830955
H    -11.095130   -0.605603    1.363124
H    -10.470166    1.025982    1.391020
H    -14.703769   -0.860766    1.109831
H    -13.564907    0.020756    2.138311
H    -13.061562   -1.458710    1.285779
H    -14.994508    0.406794   -1.186479
H    -15.060796    1.440254    0.213067
H    -13.973951    1.961313   -2.521175
H    -14.994096    3.626636   -0.457756
H    -12.714028    3.272347   -0.059465
H    -12.450460    3.762503   -1.717148
H    -10.966024    2.297990   -3.263225
H    -12.093937    0.958503   -3.075078
H    -10.387706    0.725775   -2.706878
H    -10.050164    3.560023   -1.331067
H     -9.287395    2.073979   -0.803632
H    -10.286497    2.994443    0.326231
