30

C     -4.065430   -1.846789   -0.013407
C     -2.741491   -2.110195   -0.366034
C     -1.750113   -1.143340   -0.146452
C     -2.082904    0.084670    0.424859
C     -3.415441    0.339621    0.775545
C     -4.401617   -0.620477    0.557797
O     -3.830877    1.515094    1.340284
C     -1.033226    1.094914    0.652237
O     -1.322095    2.179106    1.156865
C      0.363660    0.808259    0.276499
C      0.690113   -0.420390   -0.294246
C     -0.354049   -1.438728   -0.525892
O     -0.064380   -2.517445   -1.028961
C      2.017336   -0.701310   -0.652954
C      3.026898    0.251110   -0.452639
C      2.693884    1.479067    0.131332
C      1.374349    1.754207    0.488863
O      1.146863    2.981975    1.049380
C      4.452270   -0.064024   -0.819375
O      5.068687   -0.831466    0.203384
H     -4.834812   -2.596734   -0.183628
H     -2.486240   -3.070618   -0.811928
H     -5.432497   -0.410935    0.834216
H     -3.051387    2.104597    1.442021
H      2.268423   -1.668418   -1.090513
H      3.459699    2.231933    0.311378
H      0.188156    3.060000    1.252280
H      5.031613    0.854468   -0.960779
H      4.496795   -0.625849   -1.758222
H      4.587813   -0.672303    1.032946
