70

C     -1.597166   -3.887798   -2.122633
C     -2.209091   -2.516566   -2.370164
C     -3.361116   -2.090194   -1.423157
C     -3.261662   -0.572424   -1.628181
C     -1.774023   -0.408735   -1.640369
C     -1.067115    0.554791   -1.006360
C      0.395547    0.744153   -1.170379
C      1.076587    1.617231   -0.391503
C      0.348939    2.420656    0.632147
O      0.967369    3.177977    1.390748
C     -1.120253    2.319023    0.754874
C     -1.828165    1.406799   -0.048324
C     -3.220237    1.292036    0.150728
C     -3.892588    2.102826    1.084219
C     -3.173526    3.016298    1.852525
C     -1.789816    3.117438    1.704044
O     -1.136940    4.015660    2.511710
O     -3.815136    3.745638    2.822756
C     -4.233971    5.001060    2.300584
O     -5.249095    2.039404    1.284303
C     -3.994263    0.311298   -0.635977
O     -5.226290    0.290876   -0.550012
C      2.566290    1.919158   -0.467470
C      3.458477    0.867007    0.174455
C      3.379710    0.539478    1.538503
C      4.177823   -0.468850    2.107056
C      5.097772   -1.157444    1.306092
C      5.240560   -0.827970   -0.044955
C      4.429030    0.189522   -0.593252
O      4.562742    0.572274   -1.906871
C      6.254382   -1.520056   -0.899052
O      6.480604   -1.077884   -2.027072
C      6.969531   -2.733266   -0.369622
C      4.036491   -0.813162    3.565275
O      2.540113    1.184753    2.410324
C      1.090904   -0.011375   -2.284113
O     -1.174048   -1.512280   -2.241455
O     -3.734086   -0.217948   -2.938886
C     -4.698057   -2.702278   -1.869843
C     -3.108344   -2.499270    0.047831
H     -2.356551   -4.676185   -2.104383
H     -1.025782   -3.910252   -1.190680
H     -0.895579   -4.118641   -2.925390
H     -2.548886   -2.486159   -3.416178
H     -0.176996    3.970010    2.322185
H     -3.388008    5.597879    1.944139
H     -4.970645    4.872629    1.502653
H     -4.711359    5.553902    3.110989
H     -5.632748    1.349698    0.698279
H      2.832602    2.101459   -1.514068
H      2.810008    2.879485    0.005552
H      5.703211   -1.928943    1.770378
H      5.307976    0.071230   -2.310009
H      7.600284   -2.466614    0.480660
H      6.239133   -3.502852   -0.088952
H      7.609206   -3.152433   -1.151680
H      4.761070   -1.572050    3.868898
H      4.195155    0.066698    4.195328
H      3.035487   -1.213886    3.754452
H      2.288537    2.068603    2.069558
H      1.262971   -1.056261   -1.997323
H      2.062777    0.401968   -2.546099
H      0.511523    0.025008   -3.213865
H     -4.640213    0.140190   -2.849033
H     -4.922780   -2.491646   -2.922048
H     -5.530834   -2.322739   -1.269289
H     -4.679615   -3.790250   -1.757594
H     -2.139303   -2.153245    0.419906
H     -3.127756   -3.588658    0.162955
H     -3.880768   -2.095803    0.709725
