31

C      3.116343   -1.315555    1.639118
C      4.330069   -1.532651    0.980592
C      4.570896   -0.887033   -0.220637
C      3.622335   -0.028746   -0.767485
C      2.413441    0.197210   -0.114912
C      2.140824   -0.461248    1.094332
C      0.897827   -0.250592    1.852197
C     -0.319240   -0.026250    1.337550
C     -1.530713    0.157127    2.181398
O     -1.636001    0.149275    3.388087
C     -2.588292    0.356065    1.199136
C     -1.997897    0.286274   -0.059315
O     -0.644723    0.052431   -0.010804
C     -2.764098    0.448449   -1.188374
C     -4.135550    0.676316   -1.033276
C     -4.729164    0.743313    0.238027
C     -3.941875    0.581367    1.383303
O     -4.876840    0.832889   -2.173957
O     -2.213763    0.394344   -2.433074
O      3.924828    0.578292   -1.956180
O      5.754297   -1.097665   -0.867402
H      2.936910   -1.828536    2.582079
H      5.076898   -2.198221    1.402145
H      1.690950    0.886823   -0.539199
H      0.996603   -0.310741    2.935450
H     -5.795199    0.921108    0.349902
H     -4.368331    0.629364    2.380382
H     -5.806286    0.975964   -1.922638
H     -2.964421    0.523557   -3.046811
H      3.147016    1.091698   -2.236727
H      5.693157   -0.544628   -1.671743
