65

C     -6.194588   -1.690323   -0.382559
C     -7.659598   -1.301887   -0.608053
N     -7.831447   -0.076501   -1.424845
C     -6.928339    0.834114   -1.268327
C     -5.703781    0.733634   -0.438816
C     -5.329892   -0.497515   -0.059741
C     -4.108616   -0.746235    0.680767
C     -2.897275   -0.362445    0.249503
N     -1.667184   -0.554625    0.836905
C     -1.396568   -1.132447    2.180204
C      0.125265   -1.333150    2.326693
C      0.652851   -0.705455    1.078818
C      1.986805   -0.568486    0.704426
C      2.269341    0.018711   -0.527339
C      1.206533    0.470180   -1.330118
C     -0.126076    0.321054   -0.950967
C     -0.403543   -0.277738    0.267211
O      1.461135    1.060141   -2.539783
O      3.518427    0.213470   -1.055631
C      4.586409   -0.587176   -0.526916
C      5.676126   -0.669174   -1.622378
C      7.037418   -0.806536   -0.960768
C      7.334449    0.434609   -0.112036
C      6.085051    0.920610    0.657104
O      5.072977   -0.094340    0.726411
C      5.517996    2.243059    0.110862
O      6.455924    3.306127    0.215605
O      8.377189    0.085576    0.817270
O      8.066572   -0.953690   -1.950523
O      5.468089   -1.787863   -2.503266
C     -1.901183   -0.246295    3.313406
O     -2.387244   -0.657433    4.359709
O     -1.731110    1.080359    3.132223
C     -7.095944    2.158386   -2.013771
O     -8.020220    2.931395   -1.872998
O     -6.071251    2.389443   -2.847067
C     -8.367140   -1.127825    0.733625
O     -8.478668   -0.105316    1.392735
O     -8.869851   -2.287980    1.208337
H     -5.800644   -2.156455   -1.295520
H     -6.130285   -2.439960    0.416758
H     -8.166052   -2.113313   -1.144840
H     -5.132132    1.630908   -0.239014
H     -4.215360   -1.310824    1.603100
H     -2.833222    0.161419   -0.701788
H     -1.910415   -2.099190    2.269725
H      0.541248   -0.856813    3.220883
H      0.372031   -2.400790    2.336696
H      2.763180   -0.914179    1.378067
H     -0.908595    0.673420   -1.611432
H      2.426939    1.191782   -2.569709
H      4.217332   -1.607038   -0.352828
H      5.663123    0.216338   -2.268853
H      7.080938   -1.719809   -0.354345
H      7.753162    1.239226   -0.726844
H      6.383605    1.112935    1.695447
H      5.242728    2.156431   -0.943889
H      4.608026    2.523305    0.652222
H      6.655483    3.435505    1.160825
H      9.088792   -0.310441    0.274797
H      7.716723   -1.604781   -2.592226
H      4.582557   -1.684636   -2.899305
H     -2.123040    1.495901    3.926961
H     -6.313436    3.231836   -3.285307
H     -9.291728   -2.026553    2.054510
