24
 xtb: 6.6.1 (8d0f1dd)
C      2.321800   -1.811400    0.216500
C      1.010400   -1.945900   -0.115200
C     -0.051600   -0.999400   -0.192500
C     -1.276600   -1.564900   -0.575400
C     -2.436500   -0.833400   -0.713000
C     -2.389600    0.543100   -0.459800
C     -1.196900    1.149200   -0.082200
C      0.012400    0.407600    0.069700
C      1.176900    1.155400    0.476000
O      1.113000    2.406400    0.680600
C      2.521400    0.621200    0.704400
C      3.007400   -0.648100    0.590300
O      3.402200    1.569500    1.087300
O     -1.304400    2.482200    0.121300
O     -3.536100    1.265900   -0.594600
O     -3.583100   -1.430900   -1.081800
H      2.921900   -2.709800    0.194500
H      0.700500   -2.950700   -0.368900
H     -1.336800   -2.621900   -0.776100
H     -0.403200    2.812200    0.391700
H      4.059200   -0.744600    0.823300
H      2.906400    2.421000    1.119900
H     -3.344500    2.195500   -0.385700
H     -4.294200   -0.768300   -1.130100
