57

C      7.265338   -0.318803    2.929717
C      5.925675    0.131804    2.363657
C      5.834399    0.006159    0.832085
C      6.830734    0.916329    0.110610
C      4.431210    0.345295    0.381497
C      3.617972   -0.521711   -0.245156
C      2.266702   -0.235442   -0.689017
C      1.505952   -1.149876   -1.319248
C      0.145860   -0.803364   -1.745567
C     -0.652150   -1.683411   -2.390012
C     -2.028106   -1.273838   -2.817916
O     -2.919341   -2.099094   -3.013169
C     -2.272818    0.228789   -3.000522
C     -1.715400    0.986551   -1.809731
C     -0.333917    0.550633   -1.409476
C      0.517700    1.381444   -0.784172
O      1.805739    1.050564   -0.417145
C     -2.876357    0.924639   -0.801562
C     -4.036952    0.976081   -1.754839
O     -5.175755    1.314438   -1.469201
O     -3.662260    0.564418   -2.999219
C     -2.968221   -0.275009    0.139678
O     -1.965292   -0.941178    0.405703
C     -4.313943   -0.603227    0.808876
C     -4.268924   -2.024788    1.380572
C     -4.635167    0.453759    1.878618
C     -5.893048    0.155914    2.687072
O     -4.820101    1.730404    1.263288
C     -1.688372    0.673211   -4.341685
Cl    -0.208495   -3.309546   -2.779333
H      7.235017   -0.299932    4.023980
H      7.501464   -1.340292    2.615496
H      8.078327    0.339991    2.611243
H      5.739392    1.168205    2.673064
H      5.138446   -0.478677    2.825036
H      6.065601   -1.031002    0.555433
H      7.862777    0.618351    0.320291
H      6.711755    1.962425    0.414600
H      6.693896    0.864737   -0.975697
H      4.088412    1.356639    0.594271
H      3.982281   -1.528102   -0.443896
H      1.894085   -2.145259   -1.506203
H     -1.642055    2.046364   -2.108446
H      0.298513    2.400382   -0.493571
H     -2.847031    1.837601   -0.198758
H     -5.082781   -0.607984    0.030485
H     -5.261759   -2.354736    1.701905
H     -3.919175   -2.738464    0.625875
H     -3.591080   -2.088888    2.238889
H     -3.787778    0.559026    2.566014
H     -5.774935   -0.732956    3.312946
H     -6.756021    0.011526    2.027780
H     -6.135380    1.001272    3.340733
H     -5.548385    1.662227    0.610708
H     -0.607813    0.511144   -4.404675
H     -1.891170    1.734459   -4.525043
H     -2.157264    0.120800   -5.164640
