32
 xtb: 6.6.1 (8d0f1dd)
C     -5.654400    0.487600   -0.079100
O     -4.411800    1.166100   -0.201900
C     -3.273900    0.477200   -0.063900
C     -2.086000    1.220500   -0.197800
C     -0.855100    0.615600   -0.075300
C     -0.749800   -0.769400    0.187900
C     -1.948500   -1.512400    0.321800
C     -3.189200   -0.881600    0.194900
O     -1.965200   -2.817800    0.569300
C      0.531800   -1.418300    0.318800
O      0.621000   -2.645900    0.550800
C      1.739600   -0.602300    0.172900
C      1.653600    0.778200   -0.090400
C      0.347000    1.454300   -0.226500
O      0.272800    2.654100   -0.453700
C      2.798500    1.544900   -0.229100
C      4.058900    0.955800   -0.108800
C      4.159900   -0.402200    0.150900
C      3.016400   -1.197400    0.295600
O      3.200100   -2.489000    0.544400
C      5.272900    1.769500   -0.255100
O      6.404300    1.351000   -0.165100
H     -5.752300   -0.286500   -0.842300
H     -5.761800    0.049000    0.914600
H     -6.411900    1.252700   -0.229200
H     -2.142800    2.278700   -0.398600
H     -4.061300   -1.503800    0.308100
H     -1.038000   -3.157700    0.639100
H      2.691700    2.600000   -0.430500
H      5.130900   -0.863900    0.244800
H      2.322200   -2.943000    0.624400
H      5.080200    2.836000   -0.461300
