72
 xtb: 6.6.1 (8d0f1dd)
O     -0.464500   -1.535100   -1.062400
C     -1.169000   -1.147600   -0.130300
N     -1.898700   -0.034900   -0.149900
C     -2.008000    0.802800   -1.322700
C     -3.190400    0.390000   -2.204900
C     -4.530000    0.501200   -1.478900
C     -5.692800    0.131600   -2.398500
C     -7.039200    0.083000   -1.675600
C     -7.528300    1.451700   -1.205500
C     -8.926000    1.369700   -0.602700
C     -1.277700   -1.983700    1.106700
C     -2.608600   -2.210100    1.696500
N     -2.713100   -3.206300    2.635700
C     -1.731200   -4.055200    3.119900
O     -2.010800   -4.922700    3.926200
O     -3.599500   -1.555200    1.402900
C     -0.232100   -2.681600    1.619500
C     -0.418600   -3.765400    2.572900
N      0.682800   -4.439500    2.799700
C      1.671100   -3.842200    2.079700
C      1.199300   -2.698700    1.346300
C      2.055600   -1.884200    0.662800
C      1.658800   -0.532400    0.159400
N      2.172500   -0.174200   -1.014200
C      2.006100    1.142800   -1.583900
C      3.360700    1.795600   -1.858000
C      4.214900    1.892300   -0.595400
C      5.529800    2.622900   -0.859800
C      6.494000    2.570300    0.325200
C      6.003100    3.347500    1.545100
C      7.046800    3.364700    2.656100
O      0.938700    0.187000    0.852900
C      3.013400   -4.191300    2.039400
O      3.575100   -5.196500    2.656700
N      3.822700   -3.420200    1.286500
C      3.458700   -2.272800    0.589700
O      4.322500   -1.670700   -0.034700
H     -2.539100    0.140900    0.610600
H     -1.076400    0.694900   -1.882300
H     -2.119100    1.835500   -0.991100
H     -3.197300    1.029500   -3.088400
H     -3.035400   -0.639900   -2.533800
H     -4.536900   -0.168500   -0.615800
H     -4.656100    1.523000   -1.118600
H     -5.494800   -0.852500   -2.830700
H     -5.749200    0.848200   -3.220900
H     -6.959600   -0.586600   -0.815800
H     -7.784700   -0.338600   -2.354500
H     -7.539300    2.139900   -2.053600
H     -6.841600    1.850700   -0.457800
H     -8.932400    0.693200    0.249200
H     -9.256600    2.349300   -0.266300
H     -9.637800    0.999800   -1.337600
H     -3.646400   -3.350400    3.016800
H      2.803200   -0.802400   -1.490900
H      1.435000    1.058300   -2.513700
H      1.430100    1.727500   -0.862800
H      3.895500    1.214500   -2.611100
H      3.184000    2.793100   -2.261500
H      3.647000    2.410500    0.179600
H      4.433700    0.885600   -0.230900
H      5.323200    3.665100   -1.113200
H      6.016200    2.161200   -1.722000
H      7.455700    2.984500    0.012600
H      6.657900    1.526800    0.604800
H      5.085000    2.895400    1.924400
H      5.772400    4.373400    1.248800
H      7.964000    3.836100    2.310200
H      6.679800    3.917000    3.517900
H      7.281300    2.350600    2.972000
H      2.941900   -5.721100    3.186300
H      4.808500   -3.677300    1.239400
