72

O     -0.858273   -1.298092   -0.916782
C     -1.379382   -0.804500    0.080656
N     -2.158587    0.321309    0.038451
C     -2.359294    1.084057   -1.173874
C     -3.397042    0.459055   -2.105914
C     -4.791049    0.379336   -1.474430
C     -5.813220   -0.172059   -2.471615
C     -7.197522   -0.405132   -1.861633
C     -7.883838    0.880878   -1.400726
C     -9.316098    0.616303   -0.961423
C     -1.257043   -1.463823    1.416357
C     -2.347277   -1.356661    2.430101
N     -2.319836   -2.207642    3.503450
C     -1.391462   -3.179355    3.766857
O     -1.425565   -3.909510    4.741861
O     -3.249861   -0.529921    2.330557
C     -0.204373   -2.253942    1.674877
C     -0.300280   -3.273298    2.745995
N      0.582566   -4.240173    2.672913
C      1.404073   -3.919482    1.608899
C      1.033063   -2.633774    1.025515
C      1.908383   -1.996121    0.218309
C      1.799304   -0.528034   -0.032138
N      2.414576   -0.071525   -1.165526
C      2.420254    1.317584   -1.568239
C      3.842177    1.853736   -1.721239
C      4.589975    1.938758   -0.386201
C      6.010040    2.475428   -0.585232
C      6.842234    2.482644    0.699880
C      6.352363    3.495394    1.735264
C      7.266002    3.528904    2.951332
O      1.237885    0.207695    0.777154
C      2.473602   -4.593270    1.179281
O      2.881195   -5.791976    1.688185
N      3.254509   -4.059342    0.203789
C      3.060362   -2.803801   -0.327580
O      3.800251   -2.369907   -1.207882
H     -2.651966    0.616574    0.878448
H     -1.398594    1.165022   -1.695297
H     -2.666232    2.092373   -0.877335
H     -3.447697    1.061196   -3.020830
H     -3.075634   -0.546331   -2.402670
H     -4.763366   -0.268449   -0.589769
H     -5.093329    1.378629   -1.139889
H     -5.450159   -1.129219   -2.866183
H     -5.900055    0.510205   -3.326249
H     -7.115132   -1.103864   -1.019868
H     -7.824234   -0.895798   -2.615970
H     -7.887314    1.615543   -2.214823
H     -7.335837    1.322982   -0.560699
H     -9.348653   -0.101151   -0.135539
H     -9.785587    1.545038   -0.624010
H     -9.911924    0.216906   -1.789407
H     -3.069804   -2.111491    4.174677
H      2.918224   -0.740242   -1.745879
H      1.910300    1.361953   -2.536611
H      1.848858    1.928028   -0.861245
H      4.402531    1.214866   -2.415433
H      3.793152    2.852091   -2.171691
H      4.032292    2.590725    0.294889
H      4.639935    0.947403    0.078489
H      5.969837    3.487601   -1.004953
H      6.528382    1.848666   -1.322133
H      7.879309    2.720746    0.433600
H      6.852256    1.477418    1.137854
H      5.338448    3.246703    2.064738
H      6.315184    4.494819    1.288208
H      8.286506    3.807759    2.668389
H      6.903013    4.262876    3.677596
H      7.299887    2.551500    3.442545
H      2.238041   -6.005489    2.396013
H      4.046552   -4.595334   -0.126511
