33

C     -2.753610   -0.459148   -0.764912
C     -1.595421    0.294574   -0.464081
C     -1.754015    1.684903   -0.268434
C     -2.999920    2.288094   -0.386711
C     -4.117757    1.533710   -0.693807
C     -3.997938    0.164559   -0.881458
O     -5.136139   -0.530946   -1.175293
O     -5.328398    2.156364   -0.802621
O     -3.104481    3.633007   -0.194616
C     -0.244500   -0.282907   -0.314690
O      0.643652    0.545742    0.444746
C      1.941013    0.048863    0.718937
C      2.754035    0.840098    1.531218
C      4.041905    0.417730    1.819137
C      4.529322   -0.779877    1.306467
C      3.710021   -1.561870    0.495278
C      2.396420   -1.165904    0.184604
C      1.534920   -1.921609   -0.620589
C      0.235588   -1.491647   -0.864454
O     -0.560136   -2.275589   -1.663857
O      4.176521   -2.741975   -0.014065
O      4.881194    1.144851    2.604763
H     -2.700652   -1.536262   -0.897030
H     -0.900432    2.315239   -0.020128
H     -4.927332   -1.471314   -1.311527
H     -5.964572    1.442894   -1.017557
H     -4.054376    3.838025   -0.325344
H      2.353601    1.771832    1.914194
H      5.545817   -1.084584    1.549571
H      1.894436   -2.860407   -1.043530
H     -0.063630   -3.033220   -2.031311
H      5.097886   -2.893466    0.272478
H      4.466980    1.970242    2.914625
