33
 xtb: 6.6.1 (8d0f1dd)
C     -2.648500   -0.404000   -1.012400
C     -1.560000    0.254500   -0.417000
C     -1.755400    1.568600    0.044100
C     -2.976800    2.197900   -0.082400
C     -4.052400    1.530000   -0.675000
C     -3.869600    0.225100   -1.136800
O     -4.960300   -0.377600   -1.708200
O     -5.257600    2.178600   -0.785300
O     -3.129500    3.473800    0.372400
C     -0.271000   -0.355700   -0.257800
O      0.631600    0.453700    0.411700
C      1.899000    0.051400    0.661300
C      2.724500    0.930700    1.343900
C      4.035000    0.555400    1.621900
C      4.510800   -0.689500    1.215500
C      3.687900   -1.567300    0.533100
C      2.355900   -1.209600    0.242900
C      1.447500   -2.051600   -0.450200
C      0.154600   -1.622400   -0.690500
O     -0.715200   -2.428600   -1.355400
O      4.113600   -2.788300    0.118200
O      4.892700    1.366200    2.287600
H     -2.536500   -1.410300   -1.373900
H     -0.948400    2.111900    0.504400
H     -4.728000   -1.270100   -2.001400
H     -5.885900    1.577800   -1.215100
H     -4.042700    3.756200    0.199300
H      2.333700    1.888500    1.646800
H      5.532200   -0.946400    1.447200
H      1.786200   -3.019600   -0.779800
H     -0.271900   -3.258700   -1.594800
H      5.041100   -2.923500    0.364300
H      4.463200    2.203000    2.521400
