33

C      2.194673    1.190612   -0.121137
C      1.652057   -0.102044    0.003515
C      2.508890   -1.173423    0.323357
C      3.873392   -0.949249    0.492386
C      4.393963    0.330991    0.359190
C      3.557907    1.394458    0.054986
O      4.070759    2.652749   -0.073679
O      5.732574    0.560505    0.526461
O      4.742503   -1.961535    0.792873
C      0.194941   -0.298822   -0.164524
C     -0.336370   -1.295203   -0.897121
C     -1.810631   -1.380324   -1.011370
O     -2.333561   -2.274320   -1.673372
C     -2.604000   -0.368817   -0.311840
C     -4.001987   -0.369339   -0.356095
C     -4.724638    0.609251    0.322257
C     -4.037277    1.583602    1.041348
C     -2.645750    1.592396    1.091016
C     -1.927763    0.609986    0.410185
O     -0.560003    0.666269    0.492119
O     -4.700308    2.561789    1.721201
O     -4.726981   -1.302375   -1.046857
O      0.402967   -2.248320   -1.573815
H      1.562336    2.042054   -0.360057
H      2.101849   -2.173847    0.438745
H      5.029594    2.545014    0.090400
H      6.102162   -0.323430    0.729776
H      4.240883   -2.795683    0.808012
H     -5.809210    0.595720    0.278627
H     -2.127123    2.361483    1.657258
H     -5.656938    2.440908    1.596177
H     -4.101909   -1.924794   -1.480913
H     -0.257001   -2.796262   -2.049448
