87
 xtb: 6.6.1 (8d0f1dd)
C     -9.248500    3.157900   -1.024700
C     -8.282100    2.088700   -0.525400
C     -6.875000    2.645200   -0.348300
C     -5.974100    1.625100    0.351000
C     -6.127800    0.227200   -0.213000
C     -7.134200   -0.066200   -1.134400
C     -8.193700    0.927100   -1.510100
C     -7.175600   -1.325100   -1.729700
C     -6.213400   -2.270200   -1.456000
C     -5.221500   -2.005400   -0.516300
C     -5.209600   -0.773000    0.151700
C     -4.289000   -0.617100    1.288000
O     -4.509900    0.184200    2.204100
C     -3.112100   -1.487300    1.324300
C     -2.054000   -1.160500    2.188900
C     -0.880000   -1.943500    2.171300
C     -0.803500   -3.044000    1.351700
C     -1.873300   -3.430900    0.531900
C     -3.035000   -2.638700    0.510900
C     -4.188500   -3.035700   -0.297200
O     -4.300000   -4.147800   -0.808800
O     -1.845500   -4.522100   -0.248400
C     -0.687100   -5.342200   -0.265500
C      0.272600   -1.561700    3.061800
C      1.088900   -0.486900    2.395800
C      0.872900    0.838000    2.680500
C      1.607000    1.855100    2.051500
C      2.612900    1.502100    1.134300
C      2.853500    0.141200    0.834000
C      2.069200   -0.856200    1.447100
O      2.208400   -2.159900    1.200300
C      3.886300   -0.253200   -0.122100
O      3.972900   -1.446200   -0.471700
C      4.838900    0.756200   -0.597800
C      4.609700    2.096900   -0.242900
C      3.406800    2.540700    0.487000
O      3.130200    3.737400    0.548000
C      5.532200    3.078800   -0.581600
C      6.711600    2.731200   -1.199200
C      6.965400    1.412500   -1.562300
C      6.005600    0.421800   -1.326800
C      6.223400   -0.986400   -1.864700
C      7.550100   -1.183900   -2.603400
C      8.676100   -0.358200   -2.002900
C      8.293400    1.105900   -2.186000
C     10.011300   -0.669400   -2.670200
O      5.210900   -1.335300   -2.795500
O      1.414300    3.157300    2.299100
C      0.445300    3.554600    3.257800
O     -2.101700   -0.131100    3.041400
O     -4.605700    1.986400    0.207900
H    -10.236800    2.733100   -1.179700
H     -9.331100    3.964600   -0.301100
H     -8.899600    3.574600   -1.966700
H     -8.634200    1.710900    0.440900
H     -6.896800    3.563400    0.241400
H     -6.445900    2.874400   -1.326500
H     -6.232000    1.586400    1.422400
H     -7.962800    1.320300   -2.504800
H     -9.153100    0.411400   -1.581200
H     -7.961400   -1.546200   -2.435800
H     -6.205800   -3.231600   -1.947100
H      0.105800   -3.621700    1.362900
H     -0.925000   -6.141700   -0.963100
H     -0.489200   -5.762300    0.722600
H      0.182500   -4.787200   -0.622600
H      0.901600   -2.433800    3.232800
H     -0.118900   -1.184000    4.005100
H      0.104300    1.085100    3.393700
H      2.925800   -2.277000    0.525300
H      5.309600    4.100700   -0.314500
H      7.451100    3.487500   -1.413200
H      6.184500   -1.675800   -1.005800
H      7.789000   -2.247700   -2.596200
H      7.389500   -0.888800   -3.642500
H      8.749900   -0.577200   -0.931800
H      9.049300    1.760800   -1.749300
H      8.244700    1.328800   -3.255800
H     10.799600   -0.050100   -2.250200
H     10.276100   -1.712700   -2.520900
H      9.953200   -0.479400   -3.739100
H      4.422700   -1.598100   -2.294100
H     -0.554800    3.235100    2.960000
H      0.497000    4.640700    3.267900
H      0.688600    3.163400    4.247700
H     -3.014100    0.252500    3.013700
H     -4.492400    2.888100    0.537300
