60
 xtb: 6.6.1 (8d0f1dd)
C      0.062400   -2.677600    3.328200
O     -1.345100   -2.641600    3.215700
C     -1.903400   -1.890700    2.218200
C     -1.192800   -1.113000    1.323100
C     -1.848000   -0.369800    0.328500
C     -3.250800   -0.451100    0.247400
C     -3.962200   -1.226400    1.137200
C     -3.302100   -1.954500    2.137100
O     -3.993800   -2.722500    3.023700
O     -5.329900   -1.366400    1.148200
C     -6.084000   -0.663200    0.180400
C     -1.153100    0.451400   -0.622600
O     -1.964800    0.869100   -1.662400
C     -1.498800    1.664600   -2.655200
C     -2.391900    2.049600   -3.637700
C     -1.949600    2.858800   -4.683200
C     -0.621100    3.269700   -4.736600
C      0.275000    2.883400   -3.751100
C     -0.153600    2.071300   -2.684000
C      0.700500    1.652400   -1.626800
C      0.188100    0.873600   -0.608500
O      0.957900    0.479700    0.471200
C      2.157000    1.163200    0.728300
C      2.492900    0.943800    2.217800
C      3.616000   -0.088300    2.369500
C      3.421500   -1.192300    1.325200
C      3.586600   -0.582800   -0.075100
O      3.191400    0.783900   -0.131600
C      2.852200   -1.426600   -1.127800
O      3.417500   -2.716700   -1.098600
O      4.374700   -2.193200    1.572000
O      3.571600   -0.591800    3.678800
O      2.837100    2.187800    2.762700
O      1.576500    3.262700   -3.768800
O     -2.851700    3.216900   -5.624600
H      0.476200   -1.687500    3.540500
H      0.262700   -3.342200    4.165400
H      0.519900   -3.081400    2.420800
H     -0.122400   -1.073500    1.381400
H     -3.755500    0.114800   -0.515100
H     -4.941300   -2.644600    2.820600
H     -7.120300   -0.923600    0.383400
H     -5.946200    0.415700    0.282900
H     -5.814100   -0.976000   -0.831000
H     -3.418800    1.730200   -3.603000
H     -0.283700    3.895900   -5.549500
H      1.733400    1.951100   -1.643200
H      2.039600    2.243400    0.565200
H      1.592800    0.543900    2.708000
H      4.581000    0.407500    2.178800
H      2.404700   -1.600800    1.438900
H      4.655600   -0.578100   -0.320300
H      2.980400   -0.951000   -2.107300
H      1.781400   -1.463100   -0.889000
H      3.015700   -3.262400   -1.789000
H      4.326000   -2.847400    0.856300
H      4.173900   -1.350400    3.727800
H      3.061700    2.067000    3.698500
H      1.758800    3.823000   -4.539000
H     -2.443300    3.776300   -6.303800
