60

C     -0.940262   -2.779512    3.549370
O     -1.771611   -1.617397    3.598455
C     -2.316802   -1.356121    2.371245
C     -1.573778   -0.631231    1.439435
C     -2.132086   -0.253469    0.209064
C     -3.479891   -0.601855   -0.039962
C     -4.232819   -1.325604    0.891125
C     -3.637344   -1.698490    2.098913
O     -4.360805   -2.400585    3.025731
O     -5.538251   -1.711266    0.749716
C     -6.212408   -1.336341   -0.450055
C     -1.397329    0.536169   -0.793043
O     -2.225867    1.509484   -1.441399
C     -1.573648    2.445825   -2.280161
C     -2.307535    3.558337   -2.682613
C     -1.756977    4.460250   -3.584739
C     -0.487998    4.255480   -4.113028
C      0.238817    3.134880   -3.700944
C     -0.279437    2.219538   -2.760175
C      0.433655    1.116464   -2.270147
C     -0.079392    0.323805   -1.243186
O      0.632375   -0.730615   -0.723710
C      2.026313   -0.491595   -0.407912
C      2.147007    0.057816    1.022444
C      3.615750    0.360303    1.358449
C      4.593868   -0.521513    0.563196
C      3.967266   -1.868452    0.138308
O      2.697180   -1.747713   -0.532568
C      3.827675   -2.858580    1.300331
O      5.095026   -3.085404    1.909752
O      4.941264    0.215907   -0.625811
O      3.771980    0.186315    2.772265
O      1.351099    1.243268    1.209675
O      1.496250    2.916248   -4.195620
O     -2.512570    5.534856   -3.926790
H      0.030563   -2.532657    3.097841
H     -0.760282   -3.102723    4.579494
H     -1.410262   -3.606266    3.004816
H     -0.567686   -0.337376    1.717181
H     -3.926906   -0.281995   -0.977748
H     -5.270684   -2.462868    2.668750
H     -7.242174   -1.703887   -0.386078
H     -6.254214   -0.244550   -0.556321
H     -5.744657   -1.801154   -1.324507
H     -3.310703    3.707253   -2.291928
H     -0.065503    4.958151   -4.827197
H      1.412817    0.905131   -2.700418
H      2.479838    0.195946   -1.121806
H      1.742380   -0.680106    1.721361
H      3.814513    1.422850    1.156471
H      5.523040   -0.672264    1.123799
H      4.640822   -2.322441   -0.597758
H      3.431950   -3.815551    0.929614
H      3.129809   -2.497915    2.062080
H      4.947722   -3.668454    2.675694
H      5.603839   -0.316351   -1.111150
H      4.596905    0.632494    3.036213
H      1.511830    1.509565    2.130791
H      1.688271    3.510510   -4.943087
H     -2.019943    6.145454   -4.504785
