39
 xtb: 6.6.1 (8d0f1dd)
C      4.740600    2.451100    0.181100
C      3.745700    1.333300    0.280700
C      4.205400    0.039000    0.543200
C      3.323200   -1.036700    0.626000
C      1.975600   -0.744900    0.431400
C      1.496400    0.549400    0.163200
C      2.389700    1.605200    0.088700
N      0.134900    0.418600    0.040200
C     -0.989000    1.302100   -0.242100
C     -2.132500    0.306800   -0.217000
C     -1.658400   -0.982000    0.066400
C     -0.232700   -0.887100    0.217500
C      0.899000   -1.662900    0.467500
C      1.177500   -3.054000    0.723900
O      0.317300   -3.950500    0.775100
C      2.600800   -3.336700    0.927500
C      3.596900   -2.420800    0.885800
C     -2.514400   -2.069100    0.148100
C     -3.861800   -1.832500   -0.063500
C     -4.343900   -0.564400   -0.353200
C     -3.484700    0.535800   -0.440700
O     -3.859200    1.805700   -0.727600
C     -5.229500    2.074200   -0.972900
O     -1.074900    2.368600    0.642000
H      5.210300    2.440800   -0.801900
H      4.257800    3.414300    0.317800
H      5.523200    2.337100    0.926600
H      5.263700   -0.122900    0.684100
H      2.053500    2.611500   -0.107200
H     -0.872500    1.758900   -1.234700
H      2.826400   -4.376100    1.123400
H      4.619900   -2.729000    1.048900
H     -2.124300   -3.050900    0.364600
H     -4.560200   -2.652700   -0.007200
H     -5.401300   -0.437300   -0.515900
H     -5.839000    1.844400   -0.096000
H     -5.275200    3.140300   -1.181700
H     -5.591500    1.513100   -1.837400
H     -1.312700    2.060500    1.529600
