39

C      4.757205    2.474540    0.186990
C      3.768192    1.346414    0.295278
C      4.231722    0.037567    0.545866
C      3.331983   -1.023406    0.626166
C      1.975435   -0.752704    0.440458
C      1.512900    0.529910    0.177565
C      2.392763    1.611981    0.093309
N      0.166910    0.380773    0.059198
C     -0.952512    1.269197   -0.256724
C     -2.115363    0.290195   -0.212455
C     -1.649388   -1.016487    0.064190
C     -0.227337   -0.939503    0.224893
C      0.897325   -1.678431    0.473535
C      1.152293   -3.078768    0.724882
O      0.308100   -3.964129    0.772546
C      2.624581   -3.368680    0.929288
C      3.609907   -2.441551    0.884055
C     -2.505092   -2.091865    0.143733
C     -3.864510   -1.847070   -0.059189
C     -4.339825   -0.546637   -0.332779
C     -3.462820    0.540657   -0.412438
O     -3.799455    1.839461   -0.653948
C     -5.172531    2.105418   -0.919513
O     -1.033878    2.289671    0.723581
H      5.108542    2.564327   -0.845451
H      4.302750    3.423377    0.490890
H      5.617875    2.302850    0.841908
H      5.294696   -0.145410    0.680731
H      2.030224    2.615919   -0.105559
H     -0.790953    1.681673   -1.257399
H      2.847386   -4.412176    1.121663
H      4.644669   -2.727237    1.040662
H     -2.141230   -3.092049    0.357265
H     -4.569175   -2.674386   -0.002087
H     -5.409744   -0.425963   -0.474561
H     -5.793754    1.871260   -0.048789
H     -5.271932    3.176242   -1.121527
H     -5.515336    1.564890   -1.808045
H     -1.960621    2.310130    1.016475
