71
 xtb: 6.6.1 (8d0f1dd)
C     -3.200700    3.093200   -0.857000
C     -2.980000    2.218700    0.372000
C     -1.505400    2.146200    0.786000
C     -1.006800    3.438200    1.422900
C     -1.271900    0.974400    1.776200
C     -2.302700    0.982900    2.889800
O     -2.486500    1.834100    3.716100
O     -3.037700   -0.132300    2.841400
C     -2.589400   -1.002400    1.828800
N     -1.485700   -0.322000    1.189200
C     -0.957400   -0.873200    0.075300
C     -1.688100   -1.816100   -0.638200
C     -3.145600   -1.840000   -0.423200
C     -3.633800   -1.329700    0.792400
C     -4.969000   -1.119800    1.051700
C     -5.919300   -1.420500    0.079100
C     -5.470900   -1.941300   -1.117800
C     -4.119600   -2.162300   -1.392300
O     -3.858700   -2.625100   -2.629600
C     -7.374000   -1.213600    0.349400
C     -0.993300   -2.683400   -1.551300
O     -1.542400   -3.628700   -2.145000
C      0.448100   -2.446200   -1.787400
C      1.114200   -1.345800   -1.226200
C      0.436600   -0.497800   -0.253900
O      0.983500    0.438200    0.322600
C      2.457800   -1.096900   -1.586200
C      3.122500   -1.994300   -2.428100
C      2.456400   -3.085600   -2.945000
C      1.118200   -3.302100   -2.647600
O      3.022600    0.013100   -1.077600
C      4.347300    0.402800   -1.443800
C      4.529900    1.816000   -0.903400
C      4.406100    1.834500    0.633100
C      4.726700    0.445700    1.226000
C      5.757400   -0.320100    0.371200
O      5.292100   -0.503600   -0.974500
C      7.140000    0.327800    0.396300
O      5.195400    0.634800    2.539200
O      3.138400    2.282700    1.044000
H     -4.247100    3.063800   -1.148500
H     -2.602000    2.732600   -1.690500
H     -2.931200    4.125900   -0.657200
H     -3.343000    1.212600    0.142000
H     -3.569800    2.604700    1.207000
H     -0.901800    1.935900   -0.102100
H      0.060800    3.372900    1.619800
H     -1.179000    4.276100    0.755300
H     -1.526600    3.623600    2.359700
H     -0.261800    1.068200    2.191600
H     -2.229700   -1.927800    2.315800
H     -5.264600   -0.725300    2.010900
H     -6.165000   -2.195900   -1.903700
H     -2.996600   -3.111000   -2.639600
H     -7.952800   -1.295300   -0.565400
H     -7.541000   -0.235800    0.794900
H     -7.729100   -1.964900    1.053000
H      4.166400   -1.843100   -2.647800
H      2.980300   -3.772400   -3.590000
H      0.578400   -4.135900   -3.068700
H      4.433700    0.386000   -2.539700
H      3.754200    2.458800   -1.317800
H      5.500500    2.184600   -1.227300
H      5.107500    2.553000    1.068100
H      3.787900   -0.130200    1.235200
H      5.847000   -1.340600    0.767300
H      7.842300   -0.302000   -0.141400
H      7.125800    1.310400   -0.062500
H      7.460500    0.432100    1.428300
H      5.177300   -0.202100    3.023400
H      2.464400    1.660700    0.717600
