43

C     -3.417503    0.707807    1.656342
C     -3.052917    0.698980    0.169431
C     -2.699445   -0.678393   -0.451517
C     -1.208642   -0.613652   -0.295301
C     -0.253762   -1.600068   -0.410399
C      1.099251   -1.251082   -0.268242
C      1.515722    0.088495   -0.023738
C      0.526895    1.112134    0.082501
C     -0.816523    0.702125   -0.056477
O     -1.896456    1.559289    0.005748
C      0.941404    2.455274    0.322919
C      2.303687    2.750817    0.451196
C      3.257654    1.749749    0.347421
O      4.557573    2.156719    0.490645
C      2.892404    0.416706    0.110926
C      3.894222   -0.663787   -0.005002
C      3.547774   -1.932850   -0.236220
C      2.126079   -2.310545   -0.386401
O      1.835985   -3.486265   -0.603263
O      4.510684   -2.924691   -0.341690
O      5.229958   -0.316407    0.134422
C     -0.032552    3.599065    0.450525
O     -0.673361   -2.872259   -0.676399
C     -3.382509   -1.861109    0.240370
C     -3.049963   -0.689080   -1.951213
H     -4.348181    0.165530    1.845756
H     -3.547083    1.738702    2.004724
H     -2.621760    0.272027    2.270082
H     -3.882707    1.164446   -0.377130
H      2.634935    3.771003    0.634823
H      5.118493    1.358817    0.395931
H      4.003123   -3.748475   -0.511462
H      5.726410   -1.157142    0.025774
H     -0.708738    3.434513    1.295290
H      0.483041    4.548027    0.636011
H     -0.602276    3.722650   -0.475721
H      0.109684   -3.463682   -0.728763
H     -3.182187   -2.804632   -0.278863
H     -4.470352   -1.729922    0.253662
H     -3.039248   -1.987098    1.273096
H     -2.603716    0.159199   -2.484069
H     -2.690247   -1.603103   -2.438089
H     -4.134851   -0.637831   -2.097635
