30
 xtb: 6.6.1 (8d0f1dd)
C     -5.332500   -0.215900    0.963100
O     -4.845100    0.564100   -0.120200
C     -3.528600    0.625300   -0.334400
C     -2.571400    0.000800    0.400800
C     -1.192500    0.131200    0.082700
N     -0.295000   -0.482100    0.806600
C      1.014800   -0.337100    0.466200
C      1.401300    0.459500   -0.634400
C      2.743700    0.600200   -0.970000
C      3.695200   -0.051300   -0.217200
C      3.335700   -0.844400    0.880400
C      2.007200   -0.982100    1.218000
C      4.415200   -1.550200    1.666900
O      5.614500   -0.815100    1.763500
O      0.468300    1.102400   -1.384400
C     -0.833300    0.960300   -1.060900
C     -1.780100    1.591500   -1.803200
C     -3.175600    1.476900   -1.505500
O     -4.056200    2.040400   -2.165500
H     -6.413500   -0.108000    0.927100
H     -5.055500   -1.264400    0.838100
H     -4.949000    0.161500    1.913000
H     -2.806100   -0.618600    1.250200
H      3.009500    1.213200   -1.815500
H      4.741300    0.043400   -0.464100
H      1.695300   -1.584300    2.055300
H      4.038600   -1.819400    2.660700
H      4.686100   -2.474300    1.144800
H      5.463300   -0.024700    2.299400
H     -1.495500    2.201200   -2.646400
