58
 xtb: 6.6.1 (8d0f1dd)
C      6.596200    2.618900    0.490100
C      5.601500    1.556400    0.037300
C      6.307900    0.331300   -0.540600
C      5.348700   -0.816800   -0.854600
C      4.420100   -0.511700   -2.029300
C      3.572800   -1.712100   -2.454500
C      2.560700   -2.130400   -1.388500
C      1.478300   -1.118800   -1.172500
O      1.221600   -0.204900   -1.923300
C      0.698900   -1.313000    0.124200
C     -0.610000   -0.538400    0.193600
C     -1.925000   -1.131500   -0.273900
C     -3.011300   -0.163000    0.097300
C     -2.816500    0.853000    1.002400
C     -3.918900    1.873200    1.147200
O     -5.220700    1.323100    0.972700
C     -5.364300    0.379100    0.024900
C     -4.295300   -0.310700   -0.484300
C     -6.720400    0.087600   -0.366700
C     -7.786800    0.743700    0.108800
C     -9.186500    0.457400   -0.277100
C     -1.636200    1.030200    1.800400
O     -1.425300    1.990800    2.537900
C     -0.693100   -0.163700    1.676300
O      0.683800    0.099000    2.023600
C      1.485700   -0.624800    1.258300
O      2.673400   -0.706500    1.443300
C     -1.193600   -1.267200    2.615400
H      7.209400    2.945100   -0.347000
H      6.074700    3.483500    0.893600
H      7.251400    2.221700    1.262000
H      4.983700    1.245300    0.884400
H      4.935400    1.986900   -0.713000
H      6.848500    0.618000   -1.446000
H      7.042800   -0.018700    0.188400
H      5.933200   -1.709000   -1.091900
H      4.761400   -1.021600    0.042200
H      3.756600    0.315300   -1.770500
H      5.024600   -0.194600   -2.882200
H      4.228100   -2.556200   -2.672700
H      3.030800   -1.451300   -3.365600
H      2.072000   -3.060900   -1.689100
H      3.051800   -2.311800   -0.431300
H      0.607400   -2.376500    0.350500
H     -0.444200    0.393100   -0.368300
H     -1.923800   -1.267600   -1.356300
H     -2.109700   -2.103300    0.187300
H     -3.897800    2.311100    2.147800
H     -3.784000    2.684000    0.412200
H     -4.454900   -1.054500   -1.244300
H     -6.837500   -0.709900   -1.084800
H     -7.633100    1.538300    0.826300
H     -9.644700    1.353500   -0.693300
H     -9.762900    0.187000    0.606600
H     -9.242500   -0.347600   -1.003800
H     -2.250200   -1.456700    2.460300
H     -1.048200   -0.925800    3.638100
H     -0.623900   -2.181500    2.472000
