34

C      4.713659   -1.577790   -0.471764
O      3.309810   -1.382487   -0.366639
C      2.830131   -0.104956   -0.265165
C      3.660122    1.024579   -0.258897
C      3.115439    2.299348   -0.153109
C      1.746386    2.479971   -0.052130
C      0.904915    1.358833   -0.057198
C      1.431267    0.065038   -0.162702
C      0.489971   -1.090623   -0.162497
O      0.864351   -2.256251   -0.249954
C     -0.966452   -0.859857   -0.052655
C     -1.466023    0.433737    0.050970
C     -0.549246    1.584686    0.051570
O     -0.990222    2.724943    0.140687
C     -2.848628    0.655827    0.157686
C     -3.747445   -0.419765    0.150947
C     -3.242077   -1.720473    0.056770
C     -1.867628   -1.935285   -0.046449
O     -1.473013   -3.243976   -0.136561
C     -5.225863   -0.175954    0.287295
O     -5.563056    0.057610    1.646402
O      3.974260    3.357263   -0.152573
H      5.230897   -1.211071    0.420811
H      5.109751   -1.112650   -1.380316
H      4.896618   -2.654297   -0.542892
H      4.740109    0.946011   -0.335056
H      1.322479    3.477946    0.030464
H     -3.229889    1.673659    0.248549
H     -3.912481   -2.578260    0.061828
H     -0.489548   -3.260134   -0.207981
H     -5.800196   -1.037499   -0.069200
H     -5.532789    0.690738   -0.307387
H     -4.903105   -0.392785    2.200298
H      3.467498    4.183925   -0.073154
