58
 xtb: 6.6.1 (8d0f1dd)
C      4.509300    3.684000    2.454300
C      4.371700    2.538300    1.508500
C      3.198100    1.780200    1.492300
C      3.047800    0.705600    0.633400
C      4.080800    0.348500   -0.254700
C      5.265300    1.116200   -0.245100
C      5.387600    2.194400    0.639700
O      6.301200    0.866900   -1.047700
C      3.933200   -0.778500   -1.156700
C      2.709600   -1.552700   -1.099300
C      2.544000   -2.669100   -1.949600
C      1.372100   -3.422500   -1.881500
C      0.357200   -3.091200   -1.007700
C      0.493000   -1.963600   -0.167000
C     -0.588400   -1.663700    0.796900
C     -0.451000   -2.187300    2.105700
C     -1.439100   -1.960500    3.039300
C     -2.580300   -1.219400    2.718800
C     -2.740600   -0.701400    1.414600
C     -1.726000   -0.939200    0.459200
C     -1.821400   -0.375400   -0.897300
C     -3.028700    0.401500   -1.216600
C     -3.151900    0.918800   -2.493900
C     -4.275200    1.659000   -2.872400
C     -4.384700    2.192000   -4.261100
C     -5.268900    1.869000   -1.937600
C     -5.173000    1.363500   -0.635300
C     -4.039400    0.611500   -0.257000
C     -3.919900    0.075300    1.085000
O     -4.817600    0.278700    1.940000
O     -6.182300    1.625900    0.195600
O     -0.936900   -0.543900   -1.732900
O     -3.475100   -1.046900    3.687300
O      0.654100   -2.897700    2.367600
C      1.666000   -1.216400   -0.207500
C      1.784500   -0.048000    0.677200
O      0.876200    0.295000    1.430800
O     -0.735200   -3.871700   -0.994200
O      3.464200   -3.060000   -2.828000
O      4.851800   -1.077300   -1.960300
H      3.666500    4.362700    2.345300
H      4.505800    3.317300    3.479200
H      5.432400    4.226700    2.277700
H      2.380400    2.019600    2.155800
H      6.312100    2.749800    0.613800
H      6.090300    0.089000   -1.621200
H      1.262300   -4.277200   -2.528500
H     -1.357500   -2.336100    4.047300
H     -2.353400    0.733000   -3.196800
H     -4.525500    1.367900   -4.958700
H     -3.467100    2.705000   -4.539500
H     -5.223000    2.875800   -4.352700
H     -6.154200    2.435200   -2.181800
H     -5.994500    1.220500    1.078400
H     -4.232000   -0.507000    3.340700
H      0.670900   -3.201800    3.290700
H     -1.389400   -3.569800   -0.344600
H      4.244000   -2.448500   -2.776900
