58

C      4.459176    3.708421    2.544878
C      4.347852    2.553308    1.593657
C      3.128963    1.883735    1.427239
C      3.032820    0.781981    0.562795
C      4.151111    0.343698   -0.137138
C      5.372017    1.007643    0.034064
C      5.473000    2.096512    0.898955
O      6.520607    0.643055   -0.615220
C      4.031497   -0.805151   -1.047459
C      2.779604   -1.587036   -1.097413
C      2.715108   -2.750149   -1.877970
C      1.555202   -3.509300   -1.914224
C      0.466434   -3.121705   -1.142465
C      0.497881   -1.990183   -0.306125
C     -0.591158   -1.747827    0.674642
C     -0.362413   -2.111167    2.022558
C     -1.278452   -1.828167    3.031594
C     -2.437903   -1.134429    2.717220
C     -2.704356   -0.749659    1.396298
C     -1.810422   -1.095167    0.370032
C     -2.205649   -0.783951   -1.025236
C     -3.259490    0.213464   -1.281295
C     -3.437600    0.718673   -2.577480
C     -4.452582    1.647034   -2.842488
C     -4.663390    2.167910   -4.233865
C     -5.307658    2.033802   -1.803851
C     -5.134172    1.519026   -0.519830
C     -4.103544    0.611547   -0.250953
C     -3.907056    0.055091    1.096335
O     -4.730280    0.291321    1.979617
O     -6.020447    1.948432    0.430537
O     -1.731541   -1.403236   -1.971739
O     -3.271721   -0.857844    3.767787
O      0.814286   -2.738971    2.349345
C      1.666272   -1.187298   -0.341763
C      1.730928    0.112298    0.381617
O      0.719232    0.674616    0.787617
O     -0.681748   -3.854644   -1.282799
O      3.753118   -3.199444   -2.649707
O      4.990839   -1.127372   -1.747626
H      3.512740    4.255834    2.607248
H      4.725168    3.346644    3.542786
H      5.222966    4.417904    2.209465
H      2.247643    2.222181    1.971547
H      6.435640    2.589407    1.021811
H      6.309317   -0.095584   -1.227947
H      1.495088   -4.393702   -2.542203
H     -1.091211   -2.107309    4.064115
H     -2.783245    0.386179   -3.382872
H     -5.343093    1.507674   -4.781377
H     -3.713529    2.227892   -4.775874
H     -5.089359    3.176586   -4.212916
H     -6.118686    2.735916   -1.989044
H     -5.828505    1.475160    1.269905
H     -4.054115   -0.369678    3.426410
H      0.777764   -3.018921    3.280076
H     -1.325258   -3.209611   -1.652673
H      4.506312   -2.575437   -2.557235
