31

C     -2.790518    0.409775   -1.164637
C     -4.056113    0.919900   -1.464736
C     -5.131544    0.628770   -0.635294
C     -4.965442   -0.170363    0.489871
C     -3.698437   -0.680446    0.788551
C     -2.596359   -0.384667   -0.026367
C     -1.290267   -0.963604    0.313667
C     -0.125573   -0.312052    0.171889
C      1.138922   -0.980132    0.580792
O      1.137872   -2.016628    1.243429
C      2.441491   -0.352387    0.225979
C      3.590083   -0.693290    0.962800
C      4.827201   -0.116916    0.675882
C      4.924578    0.792797   -0.369485
C      3.809631    1.126649   -1.129851
C      2.568132    0.552742   -0.838306
O      6.110842    1.380929   -0.692530
O      3.577185   -1.597624    1.993830
O     -6.347628    1.147408   -0.966468
H     -1.967649    0.631226   -1.838860
H     -4.202771    1.536663   -2.346919
H     -5.800107   -0.408403    1.141423
H     -3.576920   -1.306054    1.670715
H     -1.311408   -1.971955    0.724739
H     -0.085870    0.705123   -0.194006
H      5.692041   -0.395002    1.269543
H      3.909082    1.829107   -1.953748
H      1.726268    0.815483   -1.471343
H      6.796216    1.050602   -0.087169
H      2.695677   -2.036139    1.999825
H     -6.998617    0.858489   -0.306084
