31
 xtb: 6.6.1 (8d0f1dd)
C     -2.768500    0.751300   -0.854000
C     -4.026400    1.144300   -1.245300
C     -5.159100    0.535700   -0.699400
C     -4.999600   -0.476600    0.245200
C     -3.736000   -0.868000    0.629800
C     -2.591100   -0.265300    0.094400
C     -1.296600   -0.715100    0.536500
C     -0.092000   -0.230800    0.175300
C      1.127000   -0.798700    0.733200
O      1.055500   -1.683100    1.614900
C      2.427000   -0.305900    0.276600
C      3.599800   -0.698000    0.968300
C      4.842600   -0.205900    0.578400
C      4.961000    0.648000   -0.504600
C      3.812000    1.013500   -1.217800
C      2.584100    0.546300   -0.827700
O      6.143800    1.140900   -0.915700
O      3.578700   -1.534600    2.015500
O     -6.370800    0.958600   -1.117200
H     -1.910500    1.234700   -1.291500
H     -4.165900    1.924200   -1.976800
H     -5.866800   -0.955500    0.675400
H     -3.622400   -1.653500    1.361900
H     -1.297300   -1.539400    1.241600
H     -0.004800    0.596500   -0.505400
H      5.704600   -0.524600    1.144300
H      3.919900    1.663200   -2.070400
H      1.725800    0.833200   -1.410700
H      6.872600    0.823600   -0.358700
H      2.637800   -1.828500    2.149200
H     -7.084400    0.469700   -0.678000
