33
 xtb: 6.6.1 (8d0f1dd)
C      2.395400   -1.015900    0.187400
C      3.496700   -1.833100    0.058600
C      4.764600   -1.363300    0.394700
C      4.903300   -0.060700    0.862900
C      3.798100    0.755800    0.990600
C      2.523700    0.295700    0.655600
C      1.356700    1.151200    0.786400
C      0.036400    0.868200    0.500800
C     -0.751600    2.031300    0.790400
C     -2.092400    2.059500    0.608000
C     -2.692500    0.862900    0.107200
C     -4.071900    0.760200   -0.128800
C     -4.622900   -0.401800   -0.613400
C     -3.793800   -1.521400   -0.880700
C     -2.432600   -1.434600   -0.651100
C     -1.879300   -0.257000   -0.163100
O     -0.528800   -0.249500    0.033900
O     -4.321300   -2.659300   -1.354000
O     -5.944500   -0.571200   -0.865500
O      0.065300    3.015000    1.247000
C      1.361400    2.518000    1.259700
O      2.264000    3.243100    1.639000
O      5.820200   -2.204400    0.249100
H      1.423100   -1.396500   -0.077400
H      3.399900   -2.844600   -0.302400
H      5.879300    0.318800    1.129000
H      3.916800    1.764300    1.353600
H     -2.686000    2.931100    0.824600
H     -4.692700    1.617300    0.078600
H     -1.803700   -2.284600   -0.853900
H     -5.284600   -2.555500   -1.460900
H     -6.450500    0.229700   -0.663200
H      6.644300   -1.768700    0.515100
