33

C      2.573338   -0.733525   -0.381791
C      3.691880   -1.568771   -0.456600
C      4.767969   -1.356913    0.393144
C      4.744977   -0.321433    1.318164
C      3.623321    0.512040    1.391698
C      2.518114    0.318181    0.547513
C      1.351004    1.199933    0.624076
C      0.065900    0.930172    0.407458
C     -0.728568    2.085680    0.611542
C     -2.055049    2.108372    0.466378
C     -2.687375    0.847110    0.075323
C     -4.071617    0.758736   -0.111037
C     -4.624914   -0.463644   -0.480931
C     -3.816134   -1.586165   -0.663520
C     -2.443293   -1.516700   -0.482581
C     -1.880203   -0.296998   -0.113177
O     -0.507086   -0.268448    0.056237
O     -4.378620   -2.776616   -1.026536
O     -5.969960   -0.616893   -0.679196
O      0.053096    3.154132    0.977938
C      1.330798    2.636999    0.998020
O      2.316065    3.299170    1.288773
O      5.838909   -2.192279    0.285401
H      1.751742   -0.916443   -1.070859
H      3.721666   -2.378929   -1.179901
H      5.581444   -0.142312    1.986405
H      3.629820    1.316402    2.125604
H     -2.644077    3.001589    0.628277
H     -4.699137    1.632419    0.031921
H     -1.825250   -2.396691   -0.626387
H     -5.336448   -2.589842   -1.093070
H     -6.405626    0.237922   -0.518092
H      6.513315   -1.916254    0.927577
