50

O     -4.038342    1.622832    0.894021
C     -3.020823    2.295093    0.987657
O     -2.975143    3.534949    1.564791
C     -4.233944    3.981938    2.069926
C     -1.697044    1.948119    0.522732
C     -1.224069    0.797441   -0.090189
C     -2.003895   -0.391809   -0.431967
C     -3.072544   -0.438292   -1.298728
N     -3.527303   -1.728520   -1.329062
C     -2.765681   -2.525352   -0.503632
C     -2.867031   -3.895511   -0.231626
C     -1.953507   -4.447743    0.670730
C     -0.982629   -3.658331    1.280838
C     -0.898925   -2.289534    1.002212
C     -1.798921   -1.705564    0.085638
C      0.172781    0.972781   -0.344139
C      1.034504   -0.027860   -0.972565
C      0.883814   -0.566675   -2.229973
N      1.884008   -1.483140   -2.410865
C      2.685505   -1.546934   -1.292355
C      3.811076   -2.339012   -1.034819
C      4.427859   -2.204531    0.212491
C      3.935242   -1.316012    1.164784
C      2.808453   -0.532315    0.892211
C      2.170011   -0.640748   -0.362303
C      0.528059    2.240294    0.093254
C      1.755273    2.999344    0.058980
O      2.675747    2.423425   -0.753792
C      3.924183    3.108468   -0.816281
O      1.919639    4.050453    0.667388
N     -0.608665    2.783160    0.650701
H     -4.088514    4.971430    2.512143
H     -4.963636    4.069869    1.258887
H     -4.597458    3.305239    2.849638
H     -3.555374    0.335029   -1.879662
H     -4.316787   -2.053716   -1.868355
H     -3.626981   -4.512099   -0.699726
H     -2.004564   -5.509015    0.901804
H     -0.280443   -4.104351    1.980373
H     -0.138853   -1.684020    1.485970
H      0.145992   -0.387556   -2.999702
H      2.012543   -2.046501   -3.239149
H      4.193250   -3.038077   -1.771244
H      5.303072   -2.807505    0.443133
H      4.426502   -1.230758    2.130689
H      2.428048    0.152630    1.643704
H      4.381309    3.166824    0.176530
H      4.590827    2.539398   -1.470121
H      3.791380    4.108035   -1.241612
H     -0.648001    3.704728    1.070640
