50
 xtb: 6.6.1 (8d0f1dd)
O     -4.079800    1.816600    0.787200
C     -3.036900    2.431700    0.919500
O     -2.984300    3.635900    1.518200
C     -4.218700    4.168000    1.996400
C     -1.723600    2.004600    0.478700
C     -1.293700    0.786000   -0.064700
C     -2.097200   -0.383400   -0.351200
C     -3.309700   -0.414200   -0.991900
N     -3.744500   -1.696600   -1.119100
C     -2.835500   -2.535600   -0.541100
C     -2.848200   -3.918500   -0.406300
C     -1.786700   -4.506300    0.247100
C     -0.743800   -3.736900    0.770700
C     -0.725700   -2.366100    0.641500
C     -1.771200   -1.746000   -0.041800
C      0.102100    0.898600   -0.266200
C      0.962300   -0.127800   -0.816400
C      0.724800   -0.873800   -1.941700
N      1.738300   -1.759400   -2.143500
C      2.647800   -1.632300   -1.134300
C      3.825200   -2.327600   -0.887000
C      4.540500   -1.992700    0.242500
C      4.092900   -0.998100    1.117300
C      2.928000   -0.304200    0.877500
C      2.196800   -0.605200   -0.270200
C      0.469900    2.180000    0.154400
C      1.727500    2.906200    0.093100
O      2.690900    2.263000   -0.559600
C      3.949300    2.924700   -0.672300
O      1.871900    4.024000    0.571600
N     -0.640400    2.817800    0.610900
H     -3.970400    5.126500    2.441000
H     -4.919200    4.288700    1.168900
H     -4.655900    3.494300    2.734600
H     -3.881400    0.408100   -1.373500
H     -4.614600   -1.975200   -1.540500
H     -3.664400   -4.509100   -0.793200
H     -1.762300   -5.578600    0.369700
H      0.063300   -4.232100    1.290400
H      0.079300   -1.784400    1.062700
H     -0.100700   -0.806900   -2.622300
H      1.793600   -2.418200   -2.901700
H      4.163400   -3.107400   -1.551800
H      5.460100   -2.512200    0.466500
H      4.675700   -0.776500    1.999500
H      2.581000    0.454900    1.564500
H      4.377800    3.086700    0.317900
H      4.573900    2.260300   -1.260500
H      3.823600    3.889800   -1.165700
H     -0.650900    3.758800    0.974200
