41

C      5.893237   -1.318656    0.039726
C      5.235007   -0.088565    0.020178
C      3.854169   -0.118627    0.015613
C      3.113939   -1.303557    0.029473
C      3.760300   -2.520253    0.048814
C      5.162131   -2.523196    0.053928
N      1.756981   -1.038963    0.020867
C      1.513823    0.329053    0.000898
C      0.314348    0.934139   -0.011894
C     -0.155409    2.327045   -0.033061
C     -1.562626    2.274759   -0.037442
C     -2.336053    3.427849   -0.056322
C     -1.686791    4.661801   -0.071193
C     -0.288748    4.724948   -0.067012
C      0.482454    3.556670   -0.047891
N     -2.006471    0.937272   -0.020355
C     -0.919918    0.069337   -0.004294
N     -1.007247   -1.218363    0.013370
C     -2.302947   -1.764910    0.016330
C     -3.461565   -0.977919    0.001113
C     -4.732211   -1.567284    0.004723
C     -4.849283   -2.956451    0.023733
C     -3.702787   -3.749997    0.038952
C     -2.437642   -3.155654    0.035243
C     -3.315301    0.496560   -0.018945
O     -4.321665    1.198991   -0.032412
C      2.883193    0.991239   -0.003398
O      3.185641    2.164944   -0.018701
H      6.980817   -1.349841    0.044102
H      5.775859    0.851082    0.009005
H      3.206218   -3.452473    0.059825
H      5.696344   -3.471375    0.069085
H      0.996548   -1.709121    0.027497
H     -3.420562    3.393955   -0.059775
H     -2.269823    5.579897   -0.086141
H      0.207150    5.693655   -0.078735
H      1.559912    3.654782   -0.045338
H     -5.626469   -0.947798   -0.007156
H     -5.833404   -3.419391    0.026596
H     -3.791951   -4.833795    0.053774
H     -1.549197   -3.781789    0.047219
