41
 xtb: 6.6.1 (8d0f1dd)
C      5.803800   -1.396000    0.041900
C      5.195600   -0.151900    0.022600
C      3.808700   -0.103000    0.016200
C      3.046300   -1.285800    0.029100
C      3.654300   -2.527100    0.048300
C      5.042500   -2.560300    0.054400
N      1.709200   -0.960000    0.019000
C      1.526000    0.383500   -0.000600
C      0.271900    0.947500   -0.013500
C     -0.189900    2.317000   -0.034200
C     -1.600500    2.296100   -0.038200
C     -2.354600    3.450400   -0.056600
C     -1.675000    4.661000   -0.071400
C     -0.288000    4.701800   -0.067900
C      0.467300    3.540700   -0.049400
N     -2.036400    0.964400   -0.020900
C     -0.930400    0.133200   -0.006300
N     -0.987900   -1.159700    0.011100
C     -2.225300   -1.740000    0.015400
C     -3.408000   -0.970600    0.002400
C     -4.650600   -1.609300    0.007800
C     -4.723200   -2.983400    0.025300
C     -3.553700   -3.745000    0.038000
C     -2.319700   -3.138100    0.033400
C     -3.332900    0.484600   -0.017000
O     -4.304600    1.233800   -0.028900
C      2.886300    1.023400   -0.003500
O      3.154300    2.215900   -0.019200
H      6.879800   -1.464400    0.047300
H      5.768300    0.762300    0.012600
H      3.074200   -3.434900    0.058200
H      5.544400   -3.515100    0.069300
H      0.913500   -1.591700    0.024900
H     -3.431400    3.404600   -0.059200
H     -2.239400    5.579900   -0.086000
H      0.214500    5.656100   -0.079700
H      1.543300    3.581600   -0.046700
H     -5.536600   -0.991900   -0.002600
H     -5.684400   -3.472200    0.029300
H     -3.621400   -4.821500    0.051900
H     -1.410500   -3.716000    0.043400
