41
 xtb: 6.6.1 (8d0f1dd)
C     -5.114100   -0.433900    1.139000
C     -5.223100    0.146900   -0.267000
C     -4.174600    1.221400   -0.539100
C     -2.828300    0.577600   -0.606600
C     -1.677200    1.278500   -0.182800
O     -1.856300    2.522100    0.248600
C     -0.425500    0.643300   -0.235300
C     -0.324200   -0.695200   -0.688800
C      0.968800   -1.369600   -0.735600
C      2.142800   -0.640400   -0.320800
C      2.053600    0.693000    0.132400
C      3.178400    1.385300    0.528700
C      4.446100    0.779900    0.490700
O      5.469600    1.540700    0.898400
C      6.782600    0.997800    0.894400
C      4.552300   -0.529200    0.046800
C      3.422200   -1.244600   -0.357000
O      3.620900   -2.494900   -0.765900
C      0.758600    1.380700    0.196800
O      0.685500    2.545900    0.606500
O      1.059000   -2.559600   -1.129500
C     -1.477200   -1.387200   -1.109800
O     -1.456400   -2.647900   -1.510500
C     -2.726100   -0.715900   -1.079800
C     -3.942400   -1.369800   -1.632400
O     -5.126400   -0.904000   -1.250300
O     -3.909300   -2.263700   -2.452700
H     -4.117000   -0.829700    1.316900
H     -5.324300    0.341500    1.868200
H     -5.833900   -1.238700    1.259200
H     -6.230500    0.541600   -0.425500
H     -4.185100    1.975900    0.246400
H     -4.384600    1.721000   -1.488600
H     -0.981300    2.908400    0.516300
H      3.088100    2.403200    0.873000
H      6.847800    0.131100    1.554700
H      7.086700    0.721000   -0.116800
H      7.420700    1.795100    1.267000
H      5.495600   -1.046600   -0.005700
H      2.755400   -2.899500   -1.024300
H     -0.516700   -2.981400   -1.490200
