25

C      4.690010    0.086689    0.640113
O      3.309587    0.427083    0.578917
C      2.494867   -0.559238    0.130056
N      3.012767   -1.739249   -0.212824
S      1.776282   -2.729330   -0.717846
C      0.548620   -1.588950   -0.481055
C      1.084928   -0.414491   -0.002996
C      0.235342    0.719067    0.280596
O      0.644902    1.793920    0.707542
C     -1.225876    0.542802    0.029273
C     -1.739199   -0.675211   -0.460938
C     -0.838976   -1.832722   -0.746271
O     -1.304418   -2.882877   -1.171898
C     -3.116003   -0.818585   -0.689848
C     -3.981844    0.244152   -0.432991
C     -3.479394    1.450756    0.051839
C     -2.112068    1.599796    0.281485
O     -1.718190    2.821626    0.757488
H      4.866743   -0.737031    1.340607
H      5.231575    0.960945    1.014487
H      5.087103   -0.147995   -0.353709
H     -3.520247   -1.756741   -1.068578
H     -5.049703    0.133344   -0.610398
H     -4.154439    2.280344    0.252454
H     -0.742368    2.821898    0.884497
