54

C     -5.141551   -0.755806   -0.447522
C     -4.470727   -0.758446    0.918316
C     -3.027197   -0.307600    0.843483
C     -1.959472   -1.183352    0.577502
C     -0.636077   -0.704766    0.507063
C      0.506256   -1.626443    0.300548
C      1.862376   -1.106035    0.046483
C      2.109412    0.252515    0.160296
C      3.409816    0.742164   -0.076144
O      3.695863    2.091166    0.035016
C      4.485298   -0.112994   -0.439460
C      5.811374    0.327227   -0.697279
C      6.833992   -0.549379   -1.048885
C      6.564790   -1.904785   -1.154826
C      5.274068   -2.371593   -0.908413
C      4.221289   -1.498688   -0.551224
C      2.913953   -1.974985   -0.300690
O      2.709565   -3.333937   -0.414729
O      6.171139    1.649357   -0.616899
C      1.011657    1.165753    0.532161
C     -0.387514    0.667985    0.661084
C     -1.448104    1.577896    0.919523
C     -2.747527    1.058085    1.008173
N     -1.211604    2.932915    1.075576
C     -2.193810    3.984111    1.269536
C     -2.848073    4.407670   -0.048699
O     -3.753587    5.488154    0.158885
O      1.293309    2.350307    0.712882
O      0.365314   -2.843541    0.350190
C     -2.265459   -2.607424    0.346600
O     -2.612181   -3.384840    1.216992
O     -2.171138   -2.831328   -0.987028
C     -2.441588   -4.184549   -1.352255
H     -6.187112   -1.066294   -0.354723
H     -4.646220   -1.442512   -1.140972
H     -5.123874    0.243412   -0.895851
H     -5.025050   -0.091958    1.591596
H     -4.548390   -1.749809    1.375837
H      2.879956    2.556299    0.336212
H      7.834301   -0.170077   -1.237370
H      7.353970   -2.600043   -1.427606
H      5.087122   -3.441532   -0.997392
H      1.790085   -3.544392   -0.133072
H      5.364990    2.143129   -0.360394
H     -3.584765    1.725390    1.205796
H     -0.230431    3.226874    1.030928
H     -1.682980    4.856839    1.695109
H     -2.948040    3.710285    2.016369
H     -3.413270    3.580835   -0.489258
H     -2.095439    4.719479   -0.781127
H     -3.224367    6.277551    0.367809
H     -1.748462   -4.866260   -0.849114
H     -3.478908   -4.442604   -1.117094
H     -2.296976   -4.279428   -2.431941
