54
 xtb: 6.6.1 (8d0f1dd)
C     -4.997000   -0.747500   -0.476300
C     -4.322600   -0.775500    0.898500
C     -2.922000   -0.247700    0.800700
C     -1.851700   -1.096900    0.485900
C     -0.566700   -0.584100    0.354300
C      0.482500   -1.542700    0.024500
C      1.830500   -1.059400   -0.111900
C      2.115600    0.332100    0.056700
C      3.428900    0.787700   -0.086200
O      3.739500    2.077400    0.059500
C      4.496500   -0.116800   -0.395600
C      5.844500    0.303100   -0.550100
C      6.826900   -0.635000   -0.851000
C      6.520100   -1.976900   -1.004300
C      5.220700   -2.409200   -0.860200
C      4.205900   -1.494900   -0.558300
C      2.857200   -1.954900   -0.413800
O      2.646700   -3.254000   -0.580600
O      6.252200    1.572100   -0.423900
C      1.057200    1.273800    0.377300
C     -0.293800    0.787400    0.530700
C     -1.383200    1.657500    0.850700
C     -2.671900    1.094200    0.966000
N     -1.179600    2.965000    1.061800
C     -2.192100    3.960100    1.294700
C     -2.902600    4.380800   -0.009700
O     -3.996500    5.231200    0.231700
O      1.329000    2.500700    0.515600
O      0.179900   -2.748900   -0.133200
C     -2.086000   -2.566500    0.336300
O     -2.133400   -3.343900    1.270700
O     -2.424800   -2.889500   -0.911000
C     -2.710000   -4.266800   -1.163500
H     -6.001800   -1.154600   -0.407600
H     -4.426200   -1.339000   -1.188300
H     -5.056200    0.273300   -0.845100
H     -4.897200   -0.163400    1.594500
H     -4.302200   -1.798900    1.277900
H      2.889700    2.578300    0.273400
H      7.837900   -0.277000   -0.960300
H      7.303300   -2.680000   -1.237000
H      4.958600   -3.447900   -0.975200
H      1.677600   -3.440300   -0.454800
H      5.501900    2.163400   -0.214500
H     -3.503900    1.738300    1.197400
H     -0.228900    3.286200    0.898300
H     -1.700600    4.827900    1.737400
H     -2.939600    3.594000    2.002700
H     -3.315100    3.498800   -0.505600
H     -2.181700    4.850800   -0.689900
H     -3.680800    6.067700    0.601000
H     -1.831200   -4.870200   -0.934200
H     -3.541900   -4.594800   -0.538100
H     -2.961600   -4.324600   -2.217900
