28

C      2.906400    1.018802   -1.584756
S      2.809408    1.395373    0.181802
C      1.859183    0.026214    0.724621
C      2.436025   -0.965475    1.430049
C      1.593200   -2.116119    1.896574
O      2.078594   -3.045676    2.537475
C      0.163877   -2.118184    1.575348
C     -0.406342   -1.133981    0.881775
C      0.391910    0.032056    0.390601
N     -0.151258    0.996491   -0.292905
C     -1.526330    0.912003   -0.552250
C     -2.138616    1.935242   -1.277862
C     -3.506722    1.887064   -1.558149
C     -4.273602    0.810563   -1.112268
C     -3.673264   -0.217318   -0.385857
C     -2.306418   -0.161163   -0.110149
O     -1.766954   -1.198938    0.609109
N      3.767466   -1.034292    1.782090
H      3.337889    0.026181   -1.741719
H      1.921443    1.062056   -2.055753
H      3.551082    1.755775   -2.071336
H     -0.406488   -2.966453    1.933940
H     -1.542080    2.775434   -1.623704
H     -3.971612    2.691117   -2.123218
H     -5.338168    0.774012   -1.329932
H     -4.267779   -1.056449   -0.036109
H      4.387520   -0.264128    1.560362
H      4.071636   -1.820208    2.352220
