28
 xtb: 6.6.1 (8d0f1dd)
C      2.690400    1.138100   -1.656700
S      2.833800    1.320500    0.148900
C      1.817200   -0.034000    0.709000
C      2.387600   -1.026100    1.475500
C      1.564200   -2.163200    1.974200
O      2.106800   -3.058000    2.638000
C      0.178000   -2.148900    1.642400
C     -0.365000   -1.143900    0.903500
C      0.438600   -0.029200    0.403300
N     -0.092700    0.937800   -0.306800
C     -1.423600    0.893300   -0.571000
C     -2.025500    1.913500   -1.324400
C     -3.372100    1.866600   -1.592100
C     -4.154700    0.810000   -1.122700
C     -3.590700   -0.207400   -0.382100
C     -2.228700   -0.168100   -0.105600
O     -1.680200   -1.177900    0.624900
N      3.674000   -1.058800    1.821200
H      3.038100    0.151200   -1.943000
H      1.654500    1.290800   -1.939000
H      3.324000    1.905900   -2.085700
H     -0.442000   -2.957900    1.995900
H     -1.401800    2.719600   -1.674100
H     -3.831400    2.652500   -2.169900
H     -5.210300    0.786900   -1.340000
H     -4.173700   -1.033700   -0.008800
H      4.302700   -0.335300    1.509900
H      3.982400   -1.844100    2.375200
