33

C     -5.222272    1.242768   -0.204390
C     -3.904125    0.524001   -0.158249
C     -2.702276    1.246356   -0.183247
C     -1.471116    0.578327   -0.140311
C     -1.437941   -0.812352   -0.072331
C     -2.630360   -1.545559   -0.046725
C     -3.849549   -0.872527   -0.089804
O     -5.022754   -1.570770   -0.065740
C     -0.146853   -1.522540   -0.026836
O     -0.107614   -2.748447    0.033173
C      1.111755   -0.753240   -0.053639
C      1.076499    0.637473   -0.121638
C     -0.214556    1.353978   -0.167442
O     -0.244607    2.577048   -0.227239
C      2.271767    1.369146   -0.147144
C      3.507251    0.716799   -0.104934
C      3.542947   -0.675322   -0.036862
C      2.351749   -1.402882   -0.011523
O      2.478177   -2.765677    0.055889
O      4.592277    1.547446   -0.136191
C      5.875885    0.934722   -0.095508
H     -5.086097    2.328120   -0.256077
H     -5.790116    0.936400   -1.088816
H     -5.805212    1.023285    0.695904
H     -2.722989    2.334519   -0.236395
H     -2.596432   -2.630711    0.006388
H     -4.832265   -2.522612   -0.017787
H      2.246459    2.457011   -0.200316
H      4.477575   -1.225951   -0.002149
H      1.576054   -3.159747    0.067439
H      6.626816    1.729977   -0.127875
H      6.033593    0.291544   -0.967556
H      6.018330    0.379419    0.837427
