66

C      6.533170    2.300034   -1.787749
C      5.570994    1.142266   -2.000729
C      6.048768   -0.171936   -1.381181
C      6.283537   -0.149013    0.139719
C      5.106198    0.295757    1.002004
C      4.017436   -0.736823    0.914748
C      4.387841   -2.093624    0.819871
C      3.393413   -3.080408    0.702770
C      2.036984   -2.714343    0.725925
C      0.962142   -3.734593    0.615437
O      1.241192   -4.923173    0.494266
C     -0.453490   -3.299406    0.653385
C     -0.775887   -2.006935    0.779963
C      0.256908   -0.992881    0.883883
C     -0.029934    0.312525    1.007597
C      1.002876    1.327229    1.105240
C      0.680567    2.620480    1.223470
C     -0.735086    3.055707    1.259020
O     -1.014056    4.245886    1.363374
C     -1.809979    2.033526    1.167116
C     -3.166610    2.397531    1.207563
C     -4.162142    1.407179    1.129919
C     -3.791546    0.057573    0.962350
C     -4.875757   -0.976754    0.839660
C     -6.074103   -0.371961    0.114670
O     -6.499207    0.828105    0.787531
C     -5.614632    1.745389    1.266059
O     -6.014762    2.759096    1.817996
C     -5.830542   -0.102321   -1.380048
C     -7.097903    0.390179   -2.085467
C     -6.855526    0.614609   -3.569936
C     -2.434740   -0.293410    0.938126
C     -1.447397    0.687539    1.040526
O     -2.112401   -1.626189    0.809289
O     -3.535195    3.713912    1.290210
O      2.339317    0.946921    1.071994
C      2.661417   -0.386129    0.948419
C      1.674372   -1.368316    0.855252
O      3.763163   -4.388024    0.533757
C      5.841438   -2.448348    0.885896
O      6.245254   -3.542756    1.248179
O      6.721254   -1.458200    0.567447
H      6.186002    3.182294   -2.335079
H      6.604712    2.573451   -0.730989
H      7.535316    2.049713   -2.149816
H      5.446629    0.988042   -3.079520
H      4.581981    1.409843   -1.613151
H      6.984632   -0.479151   -1.867226
H      5.332456   -0.960364   -1.642826
H      7.124475    0.522236    0.348698
H      5.415653    0.361151    2.052765
H      4.762901    1.288224    0.696293
H     -1.202522   -4.077950    0.573205
H      1.429650    3.399591    1.297610
H     -4.534090   -1.866904    0.300785
H     -5.162818   -1.280484    1.853879
H     -6.905540   -1.082139    0.202295
H     -5.049787    0.655307   -1.514216
H     -5.478590   -1.022427   -1.862149
H     -7.902200   -0.343912   -1.960254
H     -7.440806    1.328707   -1.635455
H     -7.772248    0.964161   -4.055101
H     -6.543604   -0.312602   -4.061119
H     -6.077576    1.367771   -3.730846
H     -2.741865    4.287807    1.378168
H      2.969894   -4.968268    0.508214
