100
 xtb: 6.6.1 (8d0f1dd)
C    -10.636000    1.782100    0.217700
C    -11.642200    0.669700    0.291000
C    -11.440800   -0.479200    0.950200
C    -12.515800   -1.547500    1.096500
C    -13.594800   -1.367400    0.011600
C    -14.082200    0.080600   -0.055400
C    -12.915200    0.978900   -0.449600
O    -15.129200    0.116700   -1.012500
O    -14.667700   -2.253300    0.252800
C    -13.144600   -1.457200    2.495100
C    -11.912200   -2.945100    0.901800
C    -10.196400   -0.792400    1.646000
C     -8.966300   -0.663800    1.120000
C     -7.724800   -0.973400    1.781700
C     -6.563900   -0.796400    1.092500
C     -5.236500   -1.018200    1.543900
C     -4.152300   -0.772800    0.763300
C     -2.783900   -0.935000    1.136200
C     -1.816300   -0.584100    0.234600
C     -0.413800   -0.609400    0.403600
C      0.457200   -0.211100   -0.566400
C      1.858700   -0.194200   -0.388400
C      2.817400    0.200400   -1.281500
C      4.183600    0.185200   -0.867700
C      5.252500    0.580400   -1.607200
C      6.578800    0.562700   -1.102500
C      7.720200    0.950900   -1.735800
C      8.964100    0.871000   -1.014300
C     10.176900    1.195700   -1.494600
C     11.427100    1.104200   -0.746600
C     11.570700    1.579100    0.498800
C     12.838000    1.440300    1.294100
C     14.051500    1.070600    0.452500
C     13.660800   -0.021700   -0.547400
C     12.567800    0.457800   -1.525700
C     13.130600    1.463600   -2.542100
C     12.059200   -0.780900   -2.278500
O     14.814500   -0.527800   -1.189300
O     15.089800    0.619800    1.302400
C     10.490800    2.306500    1.245900
C      7.754700    1.468600   -3.142100
C      2.502800    0.663800   -2.673200
C     -2.478200   -1.468300    2.504400
C     -7.785100   -1.464700    3.196200
H    -10.172500    1.809700   -0.768100
H     -9.855400    1.664500    0.962600
H    -11.130700    2.739500    0.373600
H    -13.148200   -1.607000   -0.969000
H    -14.479500    0.369700    0.927400
H    -13.185000    2.026200   -0.292200
H    -12.735500    0.845400   -1.522600
H    -15.469300    1.018500   -1.081500
H    -15.396000   -1.982200   -0.324700
H    -14.032900   -2.082600    2.529500
H    -13.420800   -0.433000    2.732800
H    -12.444900   -1.807000    3.248400
H    -11.378900   -2.997400   -0.045100
H    -12.714500   -3.678900    0.892100
H    -11.220200   -3.192200    1.701100
H    -10.313600   -1.203200    2.638300
H     -8.875600   -0.317300    0.099100
H     -6.645700   -0.432800    0.074000
H     -5.090600   -1.385000    2.547900
H     -4.327700   -0.400400   -0.239700
H     -2.155800   -0.221600   -0.729800
H     -0.003700   -0.943300    1.346800
H      0.044500    0.121100   -1.509100
H      2.203000   -0.521700    0.586700
H      4.369000   -0.164200    0.141600
H      5.092700    0.933500   -2.614000
H      6.677200    0.202600   -0.084200
H      8.892100    0.495700   -0.002300
H     10.271500    1.499000   -2.527200
H     12.703300    0.653700    2.044400
H     13.047800    2.362300    1.839900
H     14.413500    1.956700   -0.094300
H     13.269100   -0.873600    0.021700
H     13.579300    2.319300   -2.043800
H     13.867500    0.986900   -3.184700
H     12.331900    1.832300   -3.179100
H     12.907400   -1.350400   -2.653400
H     11.428800   -0.503100   -3.117500
H     11.484300   -1.419100   -1.611200
H     15.191800    0.170700   -1.743500
H     15.628900   -0.012200    0.799900
H      9.700800    2.644200    0.582300
H     10.915400    3.168200    1.758100
H     10.053100    1.659200    2.005200
H      6.764300    1.514800   -3.580300
H      8.186500    2.468000   -3.161300
H      8.372500    0.819500   -3.761600
H      1.444500    0.584600   -2.894200
H      3.049200    0.061800   -3.397800
H      2.803900    1.703200   -2.798200
H     -1.413400   -1.609300    2.652200
H     -2.843400   -0.779000    3.264800
H     -2.973600   -2.427100    2.648900
H     -8.293700   -0.734200    3.823400
H     -8.345300   -2.397900    3.241500
H     -6.796900   -1.639800    3.605900
