100

C     -9.345828    1.361249   -0.445918
C    -10.696699    0.735903   -0.164634
C    -10.935713   -0.251947    0.739378
C    -12.347491   -0.843534    0.995082
C    -13.338723   -0.415638   -0.129523
C    -13.203478    1.067180   -0.490127
C    -11.795419    1.346748   -1.007362
O    -14.177955    1.388734   -1.488655
O    -14.703048   -0.679913    0.233691
C    -12.852343   -0.373419    2.382316
C    -12.328019   -2.393193    0.998792
C     -9.854254   -0.813350    1.553945
C     -8.806600   -1.472161    1.031499
C     -7.636144   -1.951422    1.772155
C     -6.522951   -2.233665    1.065249
C     -5.209217   -2.567523    1.577577
C     -4.117738   -2.475119    0.803324
C     -2.724574   -2.621835    1.216978
C     -1.790406   -2.050590    0.428549
C     -0.364443   -1.925412    0.652079
C      0.398011   -1.172938   -0.161238
C      1.806063   -0.922656    0.044314
C      2.593816   -0.075181   -0.661327
C      4.009365    0.036925   -0.289629
C      4.920355    0.819037   -0.894745
C      6.320602    0.860021   -0.523370
C      7.284497    1.602712   -1.111281
C      8.668105    1.444131   -0.664352
C      9.758492    1.813196   -1.354501
C     11.128391    1.612446   -0.883752
C     11.695027    2.454554    0.015505
C     13.138513    2.332335    0.457482
C     13.980122    1.395886   -0.397778
C     13.193192    0.117388   -0.712352
C     11.888781    0.421574   -1.516757
C     12.215708    0.753894   -2.992393
C     11.038794   -0.876631   -1.511256
O     14.050140   -0.812649   -1.391699
O     15.202641    1.082596    0.283991
C     10.991112    3.622014    0.666241
C      7.040972    2.605150   -2.217647
C      2.115320    0.784977   -1.812343
C     -2.442536   -3.351662    2.500489
C     -7.738462   -2.023695    3.277320
H     -8.977417    1.028876   -1.424418
H     -8.586542    1.134690    0.307767
H     -9.431051    2.456721   -0.465471
H    -13.149983   -1.011407   -1.033084
H    -13.429794    1.688564    0.382842
H    -11.672956    2.437027   -1.065805
H    -11.692593    0.984052   -2.039173
H    -14.106053    2.345361   -1.662712
H    -15.230983   -0.214148   -0.447906
H    -13.852436   -0.765352    2.597766
H    -12.888550    0.719752    2.448700
H    -12.197289   -0.730786    3.189307
H    -11.912263   -2.783933    0.066424
H    -13.335826   -2.799092    1.103576
H    -11.733840   -2.799589    1.826497
H     -9.931320   -0.636142    2.622148
H     -8.785970   -1.599988   -0.052281
H     -6.566737   -2.131934   -0.019421
H     -5.117013   -2.809319    2.626844
H     -4.259952   -2.168476   -0.230286
H     -2.126517   -1.544077   -0.475919
H      0.069191   -2.398789    1.526092
H     -0.074866   -0.699177   -1.021806
H      2.242927   -1.490304    0.871899
H      4.335039   -0.586388    0.542849
H      4.622417    1.422863   -1.742899
H      6.601894    0.172061    0.275725
H      8.819119    0.934756    0.289790
H      9.687144    2.277148   -2.336516
H     13.157851    1.994674    1.503378
H     13.625267    3.321458    0.457700
H     14.272332    1.896814   -1.323895
H     12.935776   -0.364569    0.240806
H     12.805801    1.672347   -3.081397
H     12.773756   -0.059287   -3.474552
H     11.300476    0.897261   -3.579684
H     11.613339   -1.724131   -1.899946
H     10.140366   -0.783771   -2.139151
H     10.708531   -1.130416   -0.493521
H     14.650383   -0.310814   -1.966755
H     15.243371    0.110724    0.384367
H      9.907660    3.633623    0.499707
H     11.399115    4.567763    0.287475
H     11.145576    3.589698    1.751365
H      5.986890    2.802558   -2.413902
H      7.482923    3.573446   -1.954434
H      7.482669    2.249246   -3.154358
H      1.038641    0.726063   -1.990012
H      2.616167    0.490458   -2.743268
H      2.327408    1.847241   -1.619838
H     -1.381551   -3.567134    2.651216
H     -2.785341   -2.762406    3.358025
H     -2.953421   -4.322895    2.513619
H     -7.774984   -1.019160    3.712885
H     -8.641679   -2.567762    3.575141
H     -6.901080   -2.548520    3.737000
