31

C      0.784246   -2.656971   -0.109928
N      0.303927   -1.256618   -0.032364
C      1.198216   -0.247805    0.243878
C      2.597264   -0.426233    0.276632
C      3.461245    0.625446    0.591740
C      2.917695    1.873750    0.869309
C      1.537860    2.072364    0.816581
N      4.825126    0.434223    0.623378
C      0.675292    1.038503    0.497757
N     -0.628982    1.299613    0.433225
C     -1.488035    0.340230    0.050987
C     -2.853661    0.602675   -0.098573
C     -3.387105    1.946856    0.151329
O     -2.872464    2.838947   -0.708401
O     -4.259343    2.215220    0.952512
C     -3.776332   -0.382839   -0.467266
C     -3.329955   -1.664203   -0.741740
C     -1.971322   -1.957771   -0.620562
C     -1.037478   -0.980223   -0.201917
H      0.018518   -3.338740    0.264799
H      1.035533   -2.866479   -1.152027
H      1.643674   -2.802544    0.546621
H      3.058870   -1.378631    0.037756
H      3.562735    2.714838    1.119408
H      1.135065    3.063726    1.021124
H      5.447361    1.202823    0.853351
H      5.264756   -0.455373    0.427711
H     -3.309837    3.688428   -0.482338
H     -4.835477   -0.139593   -0.554274
H     -4.038399   -2.431364   -1.053596
H     -1.678990   -2.972256   -0.877857
