54

C     -8.001284    2.107932   -1.103004
C     -6.637241    1.625663   -0.727134
C     -6.299274    0.333376   -0.644928
C     -4.934464   -0.016321   -0.278856
C     -4.547959   -1.360058   -0.181405
C     -3.236430   -1.704727    0.176398
C     -2.305534   -0.687337    0.411779
C     -2.683408    0.657164    0.314812
C     -4.000859    0.993758   -0.029589
C     -4.415386    2.408712   -0.132799
O     -3.600271    3.302015    0.078553
O     -5.713529    2.662918   -0.468593
O     -1.712536    1.601138    0.553177
O     -1.007271   -0.938137    0.766972
C     -0.532247   -2.254930    0.481373
C     -1.509109   -3.316469    0.975751
C     -2.840178   -3.153028    0.255011
C      0.821275   -2.369101    1.168301
O      1.103822   -3.199139    2.025631
C      1.821866   -1.402908    0.660666
C      2.837159   -0.809299    1.546175
C      3.908089   -0.009492    0.932538
C      3.826071    0.342845   -0.411453
C      2.658145   -0.079736   -1.208333
C      1.723678   -1.080877   -0.637583
C      0.748767   -1.779066   -1.513911
O      0.894497   -1.843742   -2.726830
O     -0.274895   -2.439846   -0.918311
O      2.488498    0.424540   -2.312459
C      4.851554    1.110763   -0.990703
O      4.814924    1.487580   -2.312859
C      5.964161    1.515858   -0.232618
C      6.029164    1.163746    1.115296
C      5.006477    0.410950    1.692467
O      5.155588    0.116523    3.021514
O      6.914604    2.247050   -0.895144
C      8.089704    2.603189   -0.179978
O      2.821362   -0.956321    2.762447
H     -7.946159    2.715073   -2.010571
H     -8.421261    2.721177   -0.299470
H     -8.690683    1.278701   -1.293733
H     -7.014624   -0.457117   -0.848174
H     -5.270893   -2.150414   -0.382005
H     -2.103823    2.495400    0.434423
H     -1.669539   -3.201611    2.056187
H     -1.125580   -4.329549    0.802337
H     -3.608792   -3.732250    0.780228
H     -2.763506   -3.548687   -0.765493
H      3.946031    1.246687   -2.702828
H      6.859631    1.463416    1.747176
H      4.348129   -0.346272    3.343771
H      7.856951    3.289028    0.641008
H      8.618999    1.713752    0.182894
H      8.757589    3.127478   -0.872762
