54
 xtb: 6.6.1 (8d0f1dd)
C     -7.706900    2.450900   -0.805600
C     -6.381400    1.823400   -0.559500
C     -6.123200    0.501900   -0.541700
C     -4.796100    0.029200   -0.290800
C     -4.467500   -1.321500   -0.254600
C     -3.169800   -1.733800   -0.001700
C     -2.178900   -0.778300    0.217700
C     -2.462600    0.591300    0.189400
C     -3.787500    0.994800   -0.066400
C     -4.124000    2.398400   -0.101500
O     -3.315300    3.311500    0.077800
O     -5.397100    2.746400   -0.343400
O     -1.460600    1.458000    0.401500
O     -0.853800   -1.090400    0.485000
C     -0.478300   -2.433600    0.427300
C     -1.562400   -3.396000    0.891500
C     -2.806100   -3.188100    0.033600
C      0.810600   -2.508300    1.270600
O      0.909800   -3.178000    2.267100
C      1.826900   -1.614000    0.695100
C      2.771100   -0.927600    1.594700
C      3.744700   -0.085400    0.953700
C      3.737700    0.133000   -0.449100
C      2.746900   -0.491400   -1.309200
C      1.832100   -1.431500   -0.651600
C      0.956500   -2.282800   -1.502800
O      1.207800   -2.581800   -2.642900
O     -0.149700   -2.779900   -0.932400
O      2.667800   -0.252700   -2.520400
C      4.689200    0.980300   -1.038400
O      4.738500    1.253300   -2.320000
C      5.694900    1.609500   -0.210200
C      5.687300    1.390400    1.147300
C      4.724400    0.561300    1.748000
O      4.784800    0.426100    3.055300
O      6.556800    2.365000   -0.874700
C      7.598100    3.023800   -0.165200
O      2.715000   -1.095000    2.823000
H     -7.654800    3.083600   -1.689400
H     -7.973000    3.087400    0.035600
H     -8.464500    1.689000   -0.945100
H     -6.910900   -0.209200   -0.715100
H     -5.233800   -2.059700   -0.424300
H     -1.820500    2.376600    0.349100
H     -1.764900   -3.178900    1.941400
H     -1.183200   -4.412600    0.806400
H     -3.635800   -3.774800    0.423900
H     -2.595700   -3.524300   -0.985500
H      4.002800    0.783400   -2.803100
H      6.411200    1.843400    1.804200
H      4.053500   -0.168700    3.375500
H      7.186200    3.727200    0.560100
H      8.240300    2.300000    0.338800
H      8.163200    3.559000   -0.923800
