21

C     -0.794673    1.559766   -0.535461
C     -2.103516    1.311893   -0.135553
C     -2.448306    0.115623    0.484454
C     -1.463669   -0.845957    0.706037
C     -0.138543   -0.616149    0.310777
C      0.189843    0.590630   -0.310413
C      1.575902    0.855804   -0.735135
O      1.917470    1.897705   -1.284194
C      2.595403   -0.194426   -0.480861
O      3.891527    0.066968   -0.884137
C      2.280119   -1.345876    0.112278
C      0.903130   -1.633756    0.545343
O      0.623693   -2.696589    1.090291
O     -1.872820   -1.999370    1.320660
O     -3.031534    2.280787   -0.372885
H     -0.548246    2.503151   -1.018815
H     -3.467718   -0.086101    0.799870
H      3.861381    0.963173   -1.285348
H      3.023499   -2.111948    0.297813
H     -1.095861   -2.595915    1.421687
H     -3.897083    1.980586   -0.046408
