30

C     -1.315799   -3.498010    3.242860
C     -0.224285   -3.807493    2.434822
C      0.164579   -2.932285    1.416889
C     -0.537381   -1.739644    1.188375
C     -1.629249   -1.438477    2.017878
C     -2.018011   -2.313211    3.035944
C     -0.129271   -0.784951    0.135356
C      0.155283   -1.154506   -1.127398
C      0.540908   -0.106608   -2.100307
O      0.805889   -0.400947   -3.264070
C      0.590781    1.276021   -1.622806
C      0.949329    2.333450   -2.465331
C      0.985167    3.637416   -1.976956
C      0.659665    3.871244   -0.643477
C      0.301114    2.825222    0.202702
C      0.267232    1.521911   -0.291944
O     -0.094286    0.530725    0.583943
O      0.679808    5.129830   -0.119620
O      1.277330    2.160225   -3.782870
O      0.096977   -2.454682   -1.593987
H     -1.617830   -4.179241    4.033992
H      0.327297   -4.730210    2.595032
H      1.023978   -3.192726    0.803035
H     -2.191593   -0.518323    1.873843
H     -2.868620   -2.067787    3.666420
H      1.265404    4.447228   -2.643292
H      0.051039    3.027375    1.240659
H      0.948276    5.755913   -0.813465
H      1.209479    1.202961   -3.997380
H      0.326793   -2.400418   -2.545119
