36
 xtb: 6.6.1 (8d0f1dd)
C      5.623100   -0.933500    0.238200
C      4.156600   -0.674200    0.141200
C      3.277500   -1.590400   -0.367000
C      1.896200   -1.319100   -0.435900
C      1.047200   -2.327100   -0.895600
C     -0.326700   -2.192400   -0.892100
C     -0.899700   -0.954300   -0.487900
C     -0.058500    0.127500   -0.148000
C      1.352100   -0.050300   -0.035100
C      2.298400    0.875600    0.516200
C      3.635400    0.549100    0.586900
O      1.988100    2.065000    1.081400
C     -0.706800    1.441100   -0.051400
O     -0.107900    2.499400   -0.281300
C     -2.138900    1.496100    0.263600
C     -2.949600    0.365600    0.080300
C     -2.355200   -0.860200   -0.417700
O     -3.085200   -1.829500   -0.723400
C     -4.330200    0.457400    0.351800
C     -4.850900    1.666900    0.837700
C     -4.038300    2.762300    1.015700
C     -2.681900    2.687600    0.716900
O     -5.179000   -0.552300    0.173300
O     -1.042100   -3.249500   -1.288300
H      5.947200   -0.858000    1.274400
H      6.171000   -0.187400   -0.334200
H      5.868900   -1.921200   -0.140000
H      3.621100   -2.555900   -0.703400
H      1.459100   -3.265300   -1.232400
H      4.290400    1.287500    1.023600
H      1.224400    2.478700    0.617600
H     -5.907200    1.705200    1.049800
H     -4.455000    3.686900    1.381100
H     -2.036600    3.543400    0.836600
H     -4.700600   -1.330300   -0.201900
H     -2.006600   -3.044000   -1.214600
