32

C     -0.121819    4.016261   -0.107407
O      0.581405    2.782976   -0.071825
C     -0.153576    1.621557   -0.054778
C      0.596021    0.424065   -0.019453
N      2.003183    0.482915   -0.004174
C      2.660302   -0.631199    0.028219
O      4.007989   -0.695919    0.045538
C      4.698445    0.556007    0.025969
C      2.028147   -2.026553    0.051638
O      2.740278   -3.025266    0.082122
C     -0.084783   -0.799971   -0.000390
N      0.629271   -2.036240    0.035370
C     -0.064128   -3.243413    0.053905
C     -1.404389   -3.298587    0.039347
C     -1.489512   -0.838861   -0.016066
C     -2.174227   -2.056004    0.002804
N     -3.520264   -2.167788   -0.010556
C     -4.218549   -1.012541   -0.044324
C     -3.636511    0.247916   -0.065366
C     -2.238734    0.346222   -0.051101
C     -1.556839    1.575769   -0.070284
H     -0.719905    4.103471   -1.020359
H      0.617547    4.822904   -0.116546
H     -0.741193    4.143459    0.786457
H      4.468281    1.107378   -0.891019
H      4.447106    1.147237    0.912042
H      5.772050    0.348818    0.043151
H      0.533114   -4.152256    0.081038
H     -1.948784   -4.234473    0.053637
H     -5.299316   -1.127617   -0.054486
H     -4.267327    1.130581   -0.092311
H     -2.143283    2.489151   -0.097397
