42

C      1.750574   -1.639699    2.450655
O      1.722563   -1.855019    1.036002
C      2.124988   -0.719016    0.375404
C      3.514123   -0.534472    0.266948
C      4.040159    0.607893   -0.330698
C      3.146222    1.552061   -0.831737
C      1.752156    1.351864   -0.744871
C      1.198604    0.188729   -0.182082
C     -0.271555    0.022736   -0.204267
C     -0.950478   -1.165736    0.095365
C     -2.353859   -1.252580    0.087385
C     -3.155012   -0.123348   -0.246814
C     -2.492247    1.074025   -0.600225
C     -1.075172    1.101327   -0.583917
O     -0.467531    2.305213   -1.024737
C      0.889810    2.449092   -1.239712
O      1.352361    3.452468   -1.768162
C     -3.256720    2.208093   -0.963833
C     -4.650102    2.182120   -0.975421
C     -5.313440    1.018029   -0.625168
C     -4.578674   -0.110518   -0.269513
O     -5.331145   -1.211700    0.055691
O     -3.041345   -2.407401    0.398596
C     -2.288848   -3.595677    0.620522
C      5.496544    0.752063   -0.441244
C      6.151571    1.919708   -0.407298
H      2.780859   -1.582310    2.817375
H      1.267391   -2.498492    2.926907
H      1.193257   -0.739066    2.731655
H      4.179836   -1.293845    0.672592
H      3.522998    2.457404   -1.306011
H     -0.377608   -2.054440    0.323077
H     -2.762412    3.138097   -1.242394
H     -5.211433    3.068608   -1.257166
H     -6.398897    0.980661   -0.628516
H     -4.701113   -1.922216    0.283177
H     -2.999114   -4.409349    0.795951
H     -1.693098   -3.859619   -0.259870
H     -1.663546   -3.503772    1.514141
H      6.066131   -0.169532   -0.542397
H      7.234087    1.944003   -0.491173
H      5.649115    2.873614   -0.284218
