34

C     -5.158376   -0.048243    1.295182
C     -5.249875   -0.298869   -0.074767
C     -4.095149   -0.333441   -0.851475
C     -2.846110   -0.117649   -0.261239
C     -2.751970    0.132905    1.106549
C     -3.911022    0.167469    1.885521
O     -1.568502    0.355901    1.767273
C     -0.400063    0.331331    1.043789
C      0.774275    0.570727    1.762373
C      1.974600    0.555162    1.075737
C      2.039331    0.303868   -0.286377
C      0.883483    0.079798   -1.010526
C     -0.344565    0.089660   -0.336057
C     -1.606992   -0.146267   -1.044940
O     -1.619023   -0.360809   -2.254844
O      1.001087   -0.120856   -2.357069
C      3.450979    0.336755   -0.733405
C      4.076005   -0.965866   -1.048397
C      4.989639   -1.243176   -0.124413
O      5.145895   -0.322562    0.889921
C      4.163170    0.709129    0.598612
O      3.184228    0.784318    1.674255
O      3.670861    1.252276   -1.790437
O     -4.257021   -0.584224   -2.186406
H     -6.060484   -0.021239    1.902187
H     -6.219593   -0.467114   -0.536837
H     -3.845602    0.362359    2.953499
H      0.751080    0.764571    2.830000
H      0.098907   -0.284433   -2.718476
H      3.838305   -1.577367   -1.904276
H      5.637585   -2.101929   -0.057724
H      4.684937    1.672263    0.540255
H      2.940122    1.105488   -2.420764
H     -3.370146   -0.579938   -2.608693
