34
 xtb: 6.6.1 (8d0f1dd)
C     -5.106800   -0.069600    1.317100
C     -5.221600   -0.319000   -0.038900
C     -4.091700   -0.355200   -0.848700
C     -2.815600   -0.134100   -0.272500
C     -2.732300    0.119100    1.108700
C     -3.872600    0.150500    1.900600
O     -1.548200    0.343000    1.727300
C     -0.398000    0.336000    1.029100
C      0.763100    0.588600    1.756700
C      1.953900    0.585700    1.060900
C      2.011100    0.344200   -0.310900
C      0.870300    0.092300   -1.048100
C     -0.373000    0.088500   -0.358000
C     -1.607800   -0.162600   -1.068900
O     -1.627300   -0.389800   -2.302400
O      0.965000   -0.130100   -2.359200
C      3.454300    0.401600   -0.748400
C      4.015200   -0.968200   -1.054300
C      4.855600   -1.304800   -0.088300
O      5.021900   -0.355400    0.889400
C      4.164500    0.721300    0.602400
O      3.169600    0.834300    1.607100
O      3.736600    1.385700   -1.706700
O     -4.245100   -0.597700   -2.154300
H     -5.994600   -0.045800    1.927800
H     -6.180500   -0.490000   -0.499100
H     -3.767800    0.346900    2.953800
H      0.715700    0.778100    2.813500
H      0.056000   -0.290500   -2.723700
H      3.730700   -1.536600   -1.913800
H      5.446900   -2.189000    0.054500
H      4.745200    1.649000    0.587900
H      3.268900    1.165300   -2.526900
H     -3.361700   -0.591600   -2.595600
