39
 xtb: 6.6.1 (8d0f1dd)
C      2.983400   -0.721900    0.294800
C      3.831700   -1.340500    1.187300
C      4.740300   -0.589100    1.931400
C      4.795400    0.793700    1.746000
C      3.958500    1.404900    0.841200
C      3.025100    0.661100    0.112500
C      2.154700    1.322900   -0.851100
C      0.830600    1.057300   -0.991800
C     -0.075100    0.288000   -0.159900
C     -1.328500    0.375000   -0.712100
C     -1.204000    1.207500   -1.896800
O     -2.037300    1.560000   -2.706400
O      0.103900    1.589200   -2.030900
C     -2.573000   -0.229900   -0.264500
C     -3.787700    0.398600   -0.535900
C     -4.976700   -0.172600   -0.120500
C     -4.969400   -1.381000    0.580900
C     -3.754200   -2.019500    0.843700
C     -2.565800   -1.444200    0.421900
O     -3.724900   -3.202100    1.506100
O     -6.123200   -1.974000    1.008900
O     -6.200300    0.386800   -0.354300
O      0.321500   -0.282000    0.970200
C      2.774800    2.337100   -1.750700
O      2.225800    3.350500   -2.128800
O      4.011800    2.016800   -2.084900
O      5.583300   -1.143400    2.825300
H      2.302600   -1.314200   -0.294300
H      3.793100   -2.412800    1.304300
H      5.504500    1.364200    2.323600
H      3.999900    2.475800    0.713800
H     -3.792800    1.327400   -1.083600
H     -1.657400   -1.998800    0.587600
H     -4.634200   -3.469600    1.719900
H     -6.875100   -1.423700    0.738900
H     -6.107000    1.200300   -0.869300
H     -0.438200   -0.572300    1.507600
H      4.427600    2.678800   -2.672400
H      5.456300   -2.104000    2.880500
