36
 xtb: 6.6.1 (8d0f1dd)
C      4.488900   -1.647500    0.364400
C      3.341000   -0.721100    0.122000
C      2.035700   -1.130900    0.272200
O      1.734600   -2.375600    0.638700
C      0.961100   -0.208600    0.031600
N     -0.268400   -0.666900    0.196800
C     -1.291900    0.160800   -0.016200
C     -2.638600   -0.272500    0.141000
C     -2.926000   -1.664300    0.528100
O     -4.236500   -1.886300    0.683000
C     -4.622800   -3.209100    1.056600
O     -2.098600   -2.538400    0.698100
C     -3.655400    0.635200   -0.082200
C     -3.404700    1.955000   -0.456600
C     -2.114400    2.411700   -0.623900
C     -1.027400    1.511100   -0.404500
N      0.217400    1.973800   -0.571600
O     -1.878400    3.673200   -0.985600
C      1.230100    1.139000   -0.364900
C      2.587600    1.549900   -0.521700
C      2.903200    2.885000   -0.923700
O      4.042500    3.327500   -1.083300
C      3.613400    0.617000   -0.274100
O      4.886700    0.945100   -0.400300
H      4.120100   -2.633500    0.625300
H      5.111100   -1.262400    1.169600
H      5.110000   -1.707700   -0.526700
H      0.761900   -2.474200    0.686400
H     -4.357800   -3.912700    0.266200
H     -5.698100   -3.169300    1.198700
H     -4.114600   -3.502300    1.976300
H     -4.676100    0.309300    0.036300
H     -4.220000    2.639500   -0.623200
H     -0.917500    3.820300   -1.055400
H      2.036500    3.534400   -1.096800
H      4.965200    1.895500   -0.680700
