65

C     -8.115649   -0.242526   -1.613068
C     -7.916787    1.267994   -1.517152
C     -6.729702    1.798663   -2.311898
C     -5.456251    1.365166   -1.646763
C     -4.312344    1.093806   -2.406462
C     -3.126813    0.681212   -1.782246
C     -3.083736    0.535828   -0.399656
C     -4.232144    0.817240    0.371617
C     -5.416109    1.254460   -0.247412
C     -6.628429    1.645308    0.540467
O     -6.582516    1.985934    1.712536
O     -7.812300    1.660594   -0.134477
O     -4.226550    0.638157    1.731284
C     -1.835649    0.082770    0.241567
O     -1.818408   -0.085232    1.459546
C     -0.638291   -0.155999   -0.604462
C     -0.676422   -0.004054   -1.939976
C     -1.946226    0.391072   -2.617848
O     -2.037161    0.480047   -3.838362
O      0.445383   -0.283493   -2.714755
C      0.866951    0.834630   -3.492415
C      0.618008   -0.561471    0.058696
C      1.626348    0.380923    0.322564
C      2.848859    0.026322    0.958401
C      3.903694    0.932638    1.255487
C      5.094039    0.503372    1.869617
C      5.250399   -0.842083    2.209929
C      6.502954   -1.286985    2.905275
C      7.679085   -0.421249    2.466088
O      7.365853    0.980326    2.599755
C      6.175290    1.472630    2.179475
O      5.968938    2.675471    2.059237
C      8.163682   -0.706294    1.046480
C      4.215182   -1.745597    1.945086
C      3.025556   -1.331345    1.323014
C      2.010672   -2.268214    1.068366
C      0.811647   -1.884995    0.463551
O     -0.172680   -2.804923    0.196990
C     -0.630539   -3.460493    1.378141
O      3.709468    2.259585    0.916066
O      1.382342    1.684640   -0.058160
H     -8.225660   -0.561124   -2.654172
H     -7.287266   -0.798344   -1.162871
H     -9.016745   -0.536232   -1.063643
H     -8.823157    1.748325   -1.904419
H     -6.779546    1.445386   -3.348056
H     -6.744393    2.895443   -2.322603
H     -4.344404    1.199170   -3.491485
H     -3.330108    0.369104    2.032631
H      1.928894    0.700124   -3.719502
H      0.753796    1.780146   -2.950481
H      0.326647    0.869407   -4.442119
H      6.714603   -2.343176    2.706084
H      6.340020   -1.169620    3.983370
H      8.515561   -0.614550    3.147697
H      9.024429   -0.071345    0.809461
H      7.398521   -0.481192    0.296967
H      8.462978   -1.752832    0.934711
H      4.337460   -2.790629    2.230354
H      2.160206   -3.313004    1.330735
H     -1.616400   -3.884563    1.161736
H      0.040120   -4.283742    1.643052
H     -0.737738   -2.766010    2.220381
H      4.468801    2.786666    1.263303
H      2.163736    2.208756    0.219119
