42
 xtb: 6.6.1 (8d0f1dd)
C      3.363200    1.697900    0.582400
C      1.946600    2.171000    0.244000
C      0.944500    1.064700    0.609600
C     -0.460400    1.321300    0.100300
C     -1.385000    0.292100    0.193900
C     -0.901600   -1.036400    0.722200
C     -1.924800   -2.155800    0.472800
C     -3.315300   -1.667900    0.889100
C     -3.737900   -0.510300    0.033600
O     -4.894000   -0.413900   -0.384300
C     -2.717600    0.494500   -0.212100
C     -3.086800    1.731100   -0.790200
C     -2.136200    2.745800   -0.888400
C     -0.852500    2.547200   -0.435000
O     -4.325800    1.985900   -1.226300
O     -1.598600   -3.360200    1.119800
C      0.466100   -1.318500    0.131300
C      1.392500   -0.287000    0.110400
C      2.693200   -0.508900   -0.379800
C      3.023600   -1.771300   -0.924600
C      2.072200   -2.789700   -0.904000
C      0.823700   -2.569500   -0.369200
O      4.228700   -2.046100   -1.437300
C      3.725700    0.505200   -0.252600
O      4.848200    0.391100   -0.749900
O      1.663800    3.401700    0.861400
H      3.413000    1.403500    1.634700
H      4.086000    2.496900    0.410100
H      1.889500    2.370800   -0.832500
H      0.888600    1.009600    1.708000
H     -0.772700   -0.932900    1.811000
H     -1.941200   -2.399700   -0.595900
H     -3.292300   -1.330800    1.929500
H     -4.046600   -2.472800    0.800900
H     -2.439500    3.687100   -1.316300
H     -0.153100    3.364600   -0.486500
H     -4.894300    1.191300   -1.079700
H     -1.600500   -3.226900    2.078400
H      2.347000   -3.750900   -1.306200
H      0.125700   -3.388600   -0.329500
H      4.803100   -1.245200   -1.370700
H      1.731900    3.310000    1.822700
