96

C      9.234946    3.201687    1.992537
C      9.500624    2.438483    0.693583
C      8.347405    2.595144   -0.328719
C      6.954344    2.088266   -0.002664
C      6.580737    1.330474    1.038420
C      5.191159    0.834205    1.344515
C      4.322169    0.398061    0.157469
C      4.917904   -0.774488   -0.635752
C      4.034394   -1.205718   -1.823262
C      2.669989   -1.710390   -1.418241
C      1.524229   -1.302873   -1.981969
C      0.239289   -1.792409   -1.540117
C     -0.927054   -1.446663   -2.110714
C     -2.201869   -1.917808   -1.602145
C     -3.371024   -1.610563   -2.178278
C     -4.646338   -1.997674   -1.617089
C     -5.819590   -1.679522   -2.182700
C     -7.090788   -1.943349   -1.540500
C     -8.267408   -1.577658   -2.068119
C     -9.507270   -1.688498   -1.334328
C    -10.662779   -1.195674   -1.795450
C    -11.888982   -1.090322   -1.030083
C    -12.951279   -0.386206   -1.445148
C    -14.018904   -0.137700   -0.529850
C    -14.030052   -0.657372    0.711531
C    -12.947246   -1.601284    1.093125
O    -13.004461   -2.221243    2.153767
O    -11.872769   -1.715615    0.244882
C    -15.002008   -0.247420    1.779023
C    -14.887312    1.218561    2.245796
C    -13.500196    1.632756    2.785249
C    -12.487184    1.827266    1.646475
O    -12.676821    2.439191    0.602185
O    -11.296668    1.229663    1.890509
N    -13.609066    2.925243    3.505479
O    -14.973416    0.767165   -0.927315
O      5.119390   -1.891449    0.236455
O      9.753350    1.036992    0.855230
C     10.741162    0.635590    1.794304
C     12.143159    1.168786    1.520367
C     12.708106    0.774156    0.151324
C     14.053027    1.487213    0.006367
O     15.115879    1.107311    0.472695
O     13.954390    2.702943   -0.576433
N     12.946730   -0.663181    0.044518
C     12.910718   -1.300812   -1.173371
O     12.610157   -0.741266   -2.221677
C     13.263348   -2.758152   -1.098590
H      8.395305    2.785815    2.560820
H     10.100404    3.148560    2.657755
H      9.031673    4.259278    1.782030
H     10.391668    2.878532    0.226376
H      8.650529    2.093405   -1.256383
H      8.254384    3.663722   -0.560966
H      6.205681    2.391796   -0.732785
H      7.325158    1.017600    1.765862
H      5.283717   -0.004324    2.044204
H      4.671108    1.625883    1.897924
H      4.142646    1.244587   -0.513411
H      3.347764    0.110498    0.570285
H      5.903828   -0.493411   -1.023422
H      4.541794   -2.030631   -2.341387
H      3.943649   -0.372104   -2.533998
H      2.656916   -2.448179   -0.613076
H      1.537342   -0.572072   -2.786657
H      0.235804   -2.467056   -0.687768
H     -0.942261   -0.769883   -2.966923
H     -2.177075   -2.526510   -0.698749
H     -3.390100   -1.003171   -3.081689
H     -4.631605   -2.531886   -0.667146
H     -5.842704   -1.133879   -3.127682
H     -7.059571   -2.405265   -0.554374
H     -8.304369   -1.120745   -3.051210
H     -9.453252   -2.114235   -0.332824
H    -10.691646   -0.737076   -2.785018
H    -12.961209    0.098400   -2.412868
H    -14.906409   -0.888972    2.661700
H    -16.023669   -0.412026    1.416568
H    -15.195842    1.892235    1.437380
H    -15.628642    1.351821    3.046832
H    -13.136217    0.869732    3.482793
H    -10.760513    1.401211    1.086971
H    -14.283826    2.828778    4.258020
H    -13.992320    3.619538    2.866155
H    -14.528516    1.465937   -1.447367
H      5.628505   -2.555821   -0.257472
H     10.760875   -0.457116    1.772754
H     10.418905    0.911834    2.803752
H     12.135420    2.263808    1.600533
H     12.807330    0.811148    2.317427
H     12.047259    1.092371   -0.663571
H     14.867574    3.056110   -0.545380
H     13.384034   -1.137368    0.826925
H     14.299854   -2.868317   -0.777349
H     13.137079   -3.219725   -2.082497
H     12.607421   -3.265768   -0.384382
