132

C     -1.767688    3.267414   -1.324015
C     -1.511220    1.825266   -0.985106
C     -2.639872    0.991833   -0.561887
C     -3.928572    1.334688   -0.392700
C     -4.898711    0.342788    0.047313
C     -6.221190    0.500519    0.248294
C     -7.021207    1.751954    0.095245
C     -6.934680   -0.731954    0.703184
O     -6.389554   -1.675931    1.254589
O     -8.249675   -0.673438    0.376806
C     -8.984693   -1.866249    0.696412
O    -10.058727   -2.003824   -0.247434
C    -11.310326   -1.428084    0.123649
C    -11.997964   -0.966426   -1.166339
O    -13.353335   -0.555601   -0.910058
C    -13.893150    0.105230   -2.066099
O    -13.393334    1.433613   -2.163253
C    -14.238055    2.501020   -1.689346
C    -14.329001    2.537585   -0.154144
O    -13.053710    2.831075    0.415736
C    -15.640004    2.477670   -2.351132
O    -15.692247    3.487353   -3.365096
C    -15.977038    1.104616   -2.943997
O    -17.398340    0.974510   -3.081126
C    -15.429612    0.004679   -2.044105
O    -15.883424   -1.271192   -2.521228
C    -11.175867   -0.277110    1.128794
O    -12.432655    0.333896    1.474724
C    -10.538665   -0.798426    2.421083
O    -10.003708    0.305934    3.163521
C     -9.447382   -1.855046    2.172202
O     -9.980294   -3.147689    2.510967
C     -0.307553    1.217689   -1.053623
C      1.003958    1.702885   -1.419297
C      1.640868    2.766560   -0.908572
C      3.063043    2.966535   -1.117174
C      4.035882    2.176378   -0.608874
C      3.744009    1.010589    0.316482
C      5.440001    2.422707   -0.960820
C      6.484583    1.746088   -0.458727
C      7.872710    1.953039   -0.848171
C      8.934954    1.482516   -0.164351
C      8.908314    0.831488    1.187150
C     10.286324    1.728754   -0.745345
O     10.585776    2.737272   -1.364354
O     11.086495    0.667103   -0.469976
C     12.499891    0.908986   -0.599707
O     13.137817   -0.053705   -1.452724
C     13.785433   -1.187323   -0.860241
C     12.810109   -2.335889   -0.557049
O     11.962787   -2.009663    0.538550
C     11.512954   -3.174431    1.246800
O     10.858222   -4.117698    0.390359
C      9.468329   -3.881081    0.125764
C      9.273744   -2.700156   -0.844551
O      7.898508   -2.459793   -1.108531
C      8.626642   -3.767245    1.416410
O      7.785584   -4.926698    1.558735
C      9.507722   -3.686557    2.663139
O      8.721993   -3.266783    3.801106
C     10.652113   -2.712452    2.440859
O     11.437024   -2.596790    3.635712
C     14.680235   -0.846414    0.350421
O     16.065144   -1.126051    0.067185
C     14.566994    0.617268    0.766282
O     15.164597    0.817927    2.055679
C     13.097852    1.004353    0.819890
O     12.966718    2.332501    1.350618
H     -2.474380    3.345955   -2.160579
H     -2.189869    3.797498   -0.461364
H     -0.865337    3.801973   -1.618556
H     -2.373330   -0.047196   -0.349501
H     -4.265180    2.348739   -0.585875
H     -4.469880   -0.647555    0.218750
H     -6.396411    2.648434    0.030458
H     -7.639778    1.705964   -0.807217
H     -7.676254    1.891874    0.962764
H     -8.360806   -2.749080    0.515323
H    -11.933643   -2.216006    0.570948
H    -11.422536   -0.146056   -1.611365
H    -12.013865   -1.792272   -1.889226
H    -13.543635   -0.431454   -2.955661
H    -13.719210    3.416187   -1.997130
H    -15.009838    3.334815    0.165770
H    -14.690921    1.597633    0.270178
H    -12.690509    1.994958    0.770242
H    -16.410208    2.769920   -1.626275
H    -16.139184    3.127925   -4.164822
H    -15.571510    1.001844   -3.960272
H    -17.562605    0.016486   -3.210352
H    -15.831575    0.102796   -1.031979
H    -15.475630   -1.946858   -1.943874
H    -10.555386    0.523103    0.710599
H    -13.111191   -0.073157    0.894693
H    -11.317872   -1.228249    3.063887
H    -10.744505    0.937469    3.268992
H     -8.590058   -1.675874    2.827844
H     -9.945246   -3.219728    3.487307
H     -0.255830    0.152240   -0.825360
H      1.567415    1.002537   -2.037792
H      1.137616    3.477351   -0.259715
H      3.314384    3.827378   -1.734643
H      4.285334    1.119028    1.267119
H      2.690825    0.913068    0.582876
H      4.046358    0.066569   -0.152156
H      5.621712    3.210149   -1.691063
H      6.318498    0.965629    0.276245
H      8.028871    2.484453   -1.787494
H      9.140445   -0.231429    1.105560
H      9.637443    1.315529    1.848602
H      7.943250    0.922907    1.691431
H     12.675015    1.863518   -1.101738
H     14.428869   -1.575404   -1.661622
H     12.177355   -2.510841   -1.436096
H     13.386004   -3.250164   -0.348062
H     12.400498   -3.678385    1.641240
H      9.121015   -4.773971   -0.416110
H      9.703128   -1.777241   -0.450535
H      9.791086   -2.912303   -1.790883
H      7.754437   -2.591470   -2.060463
H      7.935125   -2.918309    1.371679
H      7.415470   -4.897671    2.461829
H      9.894558   -4.674557    2.935628
H      8.264073   -2.438310    3.565511
H     10.258441   -1.707697    2.267712
H     10.842982   -2.812489    4.379499
H     14.439309   -1.493199    1.203784
H     16.314041   -0.620265   -0.730808
H     15.116050    1.272714    0.078138
H     15.974690    0.266116    2.071958
H     12.556562    0.355360    1.520883
H     13.579449    2.356490    2.115613
