63

O    -11.990788    0.006740    2.247235
C    -12.489228   -0.406340    1.201416
C    -13.717386   -1.279166    1.212015
C    -11.895582   -0.052697   -0.129949
C    -12.856674    0.291616   -1.224174
C    -10.550651   -0.036427   -0.184285
C     -9.745861    0.264956   -1.350636
C     -8.403938    0.298400   -1.313770
C     -7.596572    0.590327   -2.479698
C     -6.257067    0.661173   -2.548997
C     -5.307451    0.469950   -1.473021
C     -3.980193    0.552728   -1.655979
C     -3.025715    0.367095   -0.584248
C     -1.699112    0.443291   -0.769891
C     -0.743707    0.259650    0.301053
C      0.582882    0.329931    0.112978
C      1.539260    0.147675    1.183315
C      2.865817    0.211114    0.992654
C      3.823298    0.029722    2.062387
C      5.150519    0.084463    1.869357
C      6.104183   -0.097509    2.943337
C      7.444429   -0.074593    2.858972
C      8.246845    0.138135    1.674992
C      9.588686    0.119278    1.697605
C     10.450700    0.341956    0.480158
C     11.246215   -0.922044    0.103217
O     10.345796   -1.915770   -0.407414
C     12.276598   -0.644360   -0.990342
C     13.469227    0.094353   -0.457844
O     14.319432    0.456087   -1.438173
O     13.713381    0.365945    0.704951
H    -13.727059   -1.873894    2.130061
H    -13.708095   -1.974334    0.368196
H    -14.612367   -0.653636    1.172315
H    -12.400534    0.898208   -2.011139
H    -13.695038    0.876533   -0.829960
H    -13.256370   -0.617823   -1.683489
H     -9.990036   -0.278138    0.721053
H    -10.258966    0.463024   -2.287362
H     -7.890988    0.100603   -0.376814
H     -8.145982    0.770602   -3.403757
H     -5.826504    0.891767   -3.523650
H     -5.696024    0.254365   -0.482097
H     -3.578076    0.768451   -2.643838
H     -3.426139    0.158400    0.405971
H     -1.299152    0.651408   -1.760276
H     -1.143285    0.057063    1.292782
H      0.982021    0.531666   -0.879094
H      1.140306   -0.048371    2.176580
H      3.263978    0.406046   -0.001194
H      3.423827   -0.158347    3.056938
H      5.536083    0.272079    0.871738
H      5.676734   -0.273277    3.930738
H      7.997863   -0.233031    3.784873
H      7.736771    0.318513    0.732855
H     10.120494   -0.052226    2.632099
H      9.826407    0.648080   -0.368897
H     11.127513    1.174624    0.701380
H     11.736210   -1.350569    0.986104
H      9.677233   -2.079152    0.282857
H     11.821283   -0.064478   -1.801283
H     12.628735   -1.591272   -1.416501
H     15.051809    0.911436   -0.972142
