58

C      7.293070   -1.209388    2.198974
C      7.713954   -1.173462    0.732316
C      7.243926    0.059775   -0.029038
C      5.757749   -0.016343   -0.227407
C      4.985609    1.150448   -0.263468
C      3.599663    1.070260   -0.438974
C      2.977051   -0.169030   -0.575351
C      3.753528   -1.345443   -0.552036
C      5.150336   -1.272677   -0.400225
C      6.019246   -2.491819   -0.457909
O      5.669711   -3.536438   -0.986177
O      7.270788   -2.371646    0.066639
O      3.162522   -2.578257   -0.644756
C      1.509760   -0.230712   -0.748057
C      0.728820    1.035261   -0.759830
C      1.342943    2.218401   -0.626338
O      0.639578    3.414923   -0.616325
C      2.812929    2.313447   -0.465723
O      3.330546    3.420546   -0.355746
C     -0.714086    0.925077   -0.911468
C     -1.503672    0.606255    0.308054
C     -2.971386    0.463303    0.197378
C     -3.586094    0.639818   -1.040813
C     -4.972387    0.499430   -1.169092
C     -5.753169    0.183866   -0.050679
C     -7.240552    0.025639   -0.180826
C     -7.728229   -1.007045    0.827289
O     -7.286973   -0.658756    2.153876
C     -6.031342   -0.194069    2.405044
O     -5.684680    0.059126    3.548688
C     -5.153505    0.038446    1.212676
C     -3.756257    0.157251    1.327842
O     -3.173496   -0.057873    2.549755
C     -7.323917   -2.442979    0.506182
C     -2.791082    0.969115   -2.234308
O     -3.301523    1.140103   -3.336674
C     -1.321158    1.092087   -2.094724
O     -0.610280    1.374106   -3.252766
O     -0.959777    0.468801    1.401758
O      0.959233   -1.320891   -0.887097
H      6.206375   -1.264526    2.316922
H      7.657358   -0.327982    2.735434
H      7.700745   -2.104030    2.682790
H      8.809805   -1.192756    0.699824
H      7.527635    0.969472    0.511798
H      7.712049    0.089964   -1.020622
H      5.463413    2.124288   -0.149692
H      2.193815   -2.488606   -0.783563
H      1.320583    4.115220   -0.511135
H     -5.443976    0.634461   -2.141995
H     -7.698856    0.999667    0.028628
H     -7.522051   -0.274337   -1.196112
H     -8.823561   -0.966551    0.848142
H     -2.203798    0.097994    2.501616
H     -6.238767   -2.583450    0.533349
H     -7.689749   -2.744617   -0.479808
H     -7.740895   -3.125254    1.254445
H     -1.287525    1.448431   -3.960681
