40
 xtb: 6.6.1 (8d0f1dd)
O     -2.049800   -2.602500   -0.029100
C     -1.097400   -1.833700   -0.042100
N      0.197800   -2.242300   -0.036200
C      1.077600   -1.159700   -0.047000
C      2.484800   -1.354100   -0.041300
C      3.139900   -2.579900   -0.087600
N      4.472400   -2.399100   -0.072500
C      4.750900   -1.057900   -0.012800
C      5.976100   -0.405500    0.024800
C      5.969300    0.968500    0.085600
C      4.762200    1.684400    0.111100
O      4.855200    3.041700    0.172200
C      3.539400    1.035200    0.075000
C      3.524400   -0.355300    0.008700
C      0.330600   -0.010200   -0.065600
C     -1.046300   -0.339100   -0.064000
C     -2.088300    0.559900   -0.076200
C     -1.858000    2.029700   -0.082400
N     -3.081400    2.624500   -0.089200
C     -4.096400    1.679900   -0.089000
C     -5.461000    1.869600   -0.094600
C     -6.275200    0.747200   -0.093400
C     -5.726000   -0.534800   -0.087200
O     -6.588600   -1.588600   -0.087600
C     -4.348100   -0.723000   -0.080800
C     -3.520000    0.392200   -0.081100
O     -0.797800    2.653400   -0.079400
H      0.468500   -3.211600   -0.010300
H      2.723000   -3.566400   -0.138600
H      5.163300   -3.132400   -0.102700
H      6.904300   -0.953000    0.007400
H      6.887700    1.531800    0.116200
H      3.973600    3.443100    0.178900
H      2.625400    1.606500    0.099700
H      0.688500    0.995600   -0.088600
H     -3.219100    3.622600   -0.094000
H     -5.890500    2.858000   -0.099500
H     -7.348700    0.843200   -0.097300
H     -6.095600   -2.422900   -0.081500
H     -3.927200   -1.715000   -0.074800
