33

C     -1.170265   -1.792613    0.825023
N     -1.845792   -0.587199    0.407153
C     -1.287108    0.662791    0.225527
C     -2.419450    1.537627   -0.252343
N     -3.530013    0.719979   -0.269711
C     -4.836229    1.192258   -0.665835
C     -3.190385   -0.540155    0.127012
N     -4.031874   -1.507324    0.211476
O     -2.342243    2.717192   -0.550946
C     -0.067711    1.200505    0.370212
C      1.107540    0.547465    0.835742
C      1.307076    0.110917    2.126018
N      2.564202   -0.430162    2.192825
C      3.188799   -0.337741    0.968437
C      4.469398   -0.749207    0.576247
C      4.839439   -0.513524   -0.751197
Br     6.558865   -1.049395   -1.336074
C      3.974782    0.105099   -1.650269
C      2.698712    0.509232   -1.238979
C      2.294804    0.284868    0.093929
H     -0.963698   -1.762973    1.899238
H     -1.771525   -2.687313    0.630303
H     -0.229271   -1.927338    0.282172
H     -5.531260    1.044229    0.165949
H     -4.811188    2.249329   -0.941667
H     -5.183667    0.596904   -1.515351
H     -4.965943   -1.197866   -0.055728
H      0.065774    2.246614    0.095532
H      0.672588    0.143373    3.002144
H      2.984463   -0.826967    3.022281
H      5.145618   -1.228973    1.275788
H      4.279290    0.280763   -2.678926
H      2.026273    0.989605   -1.944327
