31

O     -1.914553    3.134934    0.286345
S     -2.358913    1.951062    1.001506
C     -4.036966    1.753714    0.591376
C     -4.415219    0.672787   -0.091475
N     -3.580038   -0.318385   -0.505171
C     -2.217671   -0.357285   -0.279444
C     -1.510775    0.580814    0.380689
C     -0.045561    0.549431    0.625728
C      0.607983   -0.644372    0.104846
C     -0.093494   -1.614328   -0.580627
C     -1.501333   -1.567584   -0.834107
O     -2.122928   -2.429240   -1.449066
N      0.773868   -2.600044   -0.959928
C      2.030010   -2.281953   -0.514789
C      1.972411   -1.071486    0.156969
C      3.124518   -0.374017    0.820797
C      3.915174    0.555346   -0.111869
N      3.145180    1.693283   -0.617447
O      0.569407    1.440076    1.192705
O     -2.299543    1.913317    2.452698
H     -4.720563    2.526910    0.908294
H     -5.457367    0.522478   -0.364071
H     -3.965945   -1.111286   -1.027462
H      0.518395   -3.432748   -1.479538
H      2.863643   -2.945897   -0.707996
H      3.812743   -1.134503    1.212729
H      2.772227    0.184689    1.695867
H      4.778997    0.948065    0.435795
H      4.308466   -0.008398   -0.965499
H      2.626961    2.115944    0.160513
H      2.420887    1.348674   -1.245541
