31
 xtb: 6.6.1 (8d0f1dd)
O     -1.816800    3.196300    0.506200
S     -2.327700    1.971500    1.101500
C     -3.997900    1.731200    0.563300
C     -4.343600    0.669900   -0.167600
N     -3.484200   -0.311500   -0.567700
C     -2.167800   -0.360900   -0.290900
C     -1.479900    0.562200    0.432300
C     -0.058700    0.509400    0.719800
C      0.613300   -0.653300    0.159100
C     -0.091400   -1.622300   -0.579800
C     -1.482300   -1.575700   -0.867100
O     -2.133800   -2.399400   -1.505100
N      0.795600   -2.590100   -0.944100
C      2.011200   -2.284000   -0.474700
C      1.954200   -1.080700    0.230600
C      3.090500   -0.364700    0.854900
C      3.825300    0.526000   -0.185500
N      3.045800    1.612900   -0.731700
O      0.487200    1.391900    1.384000
O     -2.295700    1.933400    2.555400
H     -4.689400    2.491900    0.867700
H     -5.366600    0.532600   -0.491500
H     -3.825800   -1.096800   -1.124500
H      0.549900   -3.409900   -1.484300
H      2.863200   -2.912700   -0.641900
H      3.808700   -1.077700    1.257700
H      2.719600    0.274700    1.657700
H      4.700900    0.960800    0.300600
H      4.160500   -0.094800   -1.019200
H      2.697300    2.209900    0.011200
H      2.238400    1.259700   -1.233800
