33
 xtb: 6.6.1 (8d0f1dd)
C     -3.867100    1.417600    0.799300
C     -2.403000    1.283400    0.553000
C     -1.619400    2.405200    0.694500
C     -0.240100    2.396400    0.487800
O      0.389700    3.560200    0.662600
C      0.396200    1.194700    0.117800
C      1.805800    1.110800   -0.092700
C      2.424200   -0.063200   -0.454400
C      1.677900   -1.258500   -0.680800
C      0.254600   -1.184600   -0.434600
C     -0.384200    0.017800   -0.043400
C     -1.790500    0.058000    0.177900
C     -2.530200   -1.150800    0.006900
C     -1.893600   -2.312600   -0.376200
C     -0.521300   -2.351700   -0.608400
O      0.008700   -3.512800   -0.985700
O     -3.850200   -1.152500    0.217300
O      2.228000   -2.329400   -1.083300
O      3.799700    0.047100   -0.651000
C      4.624800   -1.037800   -0.259100
O      2.564200    2.223900    0.060700
H     -4.430100    1.138600   -0.088100
H     -4.108200    2.441700    1.067300
H     -4.181800    0.754500    1.601500
H     -2.060000    3.348600    0.975500
H      1.348700    3.475200    0.496100
H     -2.445800   -3.229800   -0.512900
H      0.994600   -3.353000   -1.120900
H     -4.231400   -2.033700    0.066300
H      5.643200   -0.684100   -0.403400
H      4.442400   -1.920300   -0.873000
H      4.458000   -1.291100    0.791600
H      3.496100    1.992400   -0.107900
