33

C     -3.884595    1.443841    0.813375
C     -2.405547    1.291823    0.555096
C     -1.620030    2.441585    0.702796
C     -0.253036    2.397134    0.486445
O      0.406136    3.584693    0.663559
C      0.387616    1.206753    0.114289
C      1.846321    1.141037   -0.115091
C      2.489650    0.015980   -0.454799
C      1.699774   -1.233364   -0.654002
C      0.234040   -1.186056   -0.420403
C     -0.385192    0.028152   -0.043138
C     -1.801198    0.052467    0.176289
C     -2.511080   -1.170886   -0.000881
C     -1.880579   -2.355617   -0.373443
C     -0.514703   -2.360092   -0.583079
O      0.024092   -3.565159   -0.949827
O     -3.868281   -1.219013    0.194361
O      2.217459   -2.290690   -1.008836
O      3.867870    0.089047   -0.642222
C      4.599601   -1.081405   -0.287812
O      2.555899    2.326592    0.045182
H     -4.458543    1.209087   -0.088404
H     -4.141948    2.472484    1.090674
H     -4.196876    0.806848    1.646710
H     -2.071848    3.388929    0.990417
H      1.352592    3.414778    0.477005
H     -2.436064   -3.279200   -0.505388
H      0.990044   -3.441163   -1.092371
H     -4.190792   -2.120058    0.027360
H      5.640085   -0.784176   -0.124474
H      4.590935   -1.802669   -1.109677
H      4.230528   -1.528670    0.641338
H      3.487671    2.106989   -0.171051
