38
 xtb: 6.6.1 (8d0f1dd)
C      1.913600   -2.764100   -1.210900
C      2.490400   -1.746600   -2.192300
O      2.789500   -2.053900   -3.341900
C      2.705700   -0.447500   -1.610300
C      3.662100    0.488600   -1.969200
N      3.729400    1.460300   -1.039400
C      2.820000    1.202500   -0.042300
C      2.139800    0.012700   -0.379100
C      1.063400   -0.452400    0.383200
C      0.810300    0.215300    1.590500
C      1.548600    1.353200    1.945600
C      2.523500    1.886400    1.126500
O     -0.144800   -0.269500    2.418800
C      0.188100   -1.509300   -0.150000
N      0.540700   -2.492600   -0.887600
C     -1.235900   -1.375600    0.126500
C     -2.107700   -2.401500    0.397000
N     -3.357100   -1.915800    0.605100
C     -3.338400   -0.557000    0.450600
C     -2.011900   -0.171700    0.142900
C     -1.727500    1.169600   -0.115200
C     -2.754500    2.089200   -0.030100
C     -4.059600    1.695200    0.304700
C     -4.364600    0.374600    0.540800
O     -2.556600    3.423100   -0.265600
H      2.552400   -2.754400   -0.316100
H      1.947300   -3.753500   -1.676300
H      4.309400    0.464600   -2.823900
H      4.377600    2.232400   -1.048700
H      1.315700    1.846700    2.877500
H      3.032400    2.797500    1.395400
H     -0.198100    0.262400    3.227800
H     -1.887000   -3.447100    0.474700
H     -4.164800   -2.465100    0.847000
H     -0.726900    1.480500   -0.381200
H     -4.816600    2.461200    0.358700
H     -5.372700    0.076500    0.781300
H     -1.635200    3.584700   -0.514600
