28

C     -3.917304    0.424049    1.496831
C     -3.041835   -0.627417    1.760312
C     -2.066686   -0.976330    0.824976
C     -1.957000   -0.273999   -0.384390
C     -2.845243    0.780886   -0.639624
C     -3.819836    1.127271    0.297733
C     -0.893183   -0.645741   -1.393681
C      0.512328   -0.335477   -0.932757
C      1.478766   -1.263940   -0.841093
C      2.804015   -0.901250   -0.399007
C      3.108693    0.368136   -0.070609
C      2.044968    1.400965   -0.171033
O      2.260488    2.574758    0.113389
N      0.812744    0.970241   -0.600949
C      4.465681    0.730823    0.381711
O      5.368814   -0.098596    0.473134
O      3.679714   -1.964346   -0.356624
H     -4.676389    0.694833    2.226119
H     -3.117737   -1.175979    2.695682
H     -1.389406   -1.798340    1.047389
H     -2.787982    1.340045   -1.570886
H     -4.505080    1.945843    0.092459
H     -1.002658   -1.712908   -1.627622
H     -1.074093   -0.117387   -2.338952
H      1.297484   -2.304753   -1.092538
H      0.086371    1.677373   -0.641871
H      4.621513    1.792849    0.633361
H      4.552854   -1.631610   -0.047312
