28
 xtb: 6.6.1 (8d0f1dd)
C     -3.709800    0.453000    1.555100
C     -2.864200   -0.628900    1.740200
C     -1.969700   -0.987900    0.748300
C     -1.912000   -0.269800   -0.440000
C     -2.759900    0.814200   -0.618300
C     -3.657800    1.172100    0.373800
C     -0.908800   -0.661100   -1.501900
C      0.476800   -0.373400   -1.017200
C      1.432100   -1.337400   -0.857300
C      2.706000   -0.983400   -0.367800
C      2.977100    0.357800   -0.040300
C      1.962300    1.369000   -0.208900
O      2.093100    2.564800    0.047700
N      0.757200    0.911000   -0.707900
C      4.254100    0.746300    0.467500
O      5.203000   -0.016800    0.654800
O      3.608600   -1.933200   -0.228100
H     -4.407200    0.733600    2.329700
H     -2.902200   -1.192500    2.660100
H     -1.310100   -1.830000    0.894800
H     -2.731200    1.378500   -1.539000
H     -4.315600    2.014800    0.224200
H     -0.998900   -1.722500   -1.728600
H     -1.099800   -0.090700   -2.412200
H      1.242700   -2.368500   -1.098400
H      0.030700    1.613200   -0.813900
H      4.350200    1.818500    0.694400
H      4.453400   -1.551000    0.123500
