37
 xtb: 6.6.1 (8d0f1dd)
C     -2.526000   -2.746300   -1.498400
O     -3.174800   -1.634200   -0.913500
C     -2.404400   -0.636500   -0.382500
C     -3.157800    0.414200    0.228200
N     -4.483800    0.295000    0.207000
C     -2.447500    1.503200    0.802500
C     -3.125000    2.596900    1.484300
O     -4.452100    2.556900    1.523100
O     -2.542000    3.541300    2.024200
C     -1.028000    1.538100    0.735300
O     -0.330100    2.532200    1.282300
C     -0.314700    0.477500    0.136900
C      1.128800    0.446100    0.104700
C      1.892100    1.566100   -0.035500
C      3.312800    1.535400   -0.120700
C      3.972800    0.188700   -0.086600
N      5.281700    0.224900   -0.230700
C      3.212700   -0.966100    0.073500
C      3.883400   -2.260900    0.065800
O      3.090200   -3.323600    0.064900
O      5.105100   -2.400400    0.027000
C      1.785000   -0.889300    0.301700
O      1.120900   -1.840800    0.711600
O      4.022600    2.536500   -0.272900
C     -1.041100   -0.597700   -0.414000
H     -3.325200   -3.427200   -1.781400
H     -1.961700   -2.450300   -2.386200
H     -1.856500   -3.233300   -0.785200
H     -4.864900   -0.533600   -0.222000
H     -5.080500    0.993100    0.618600
H     -4.813300    3.326400    2.005600
H     -0.949900    3.169900    1.725700
H      1.433000    2.537100   -0.135500
H      5.811200   -0.640600   -0.212900
H      5.702700    1.141900   -0.332000
H      3.609200   -4.151100    0.058600
H     -0.484800   -1.389400   -0.884200
