37

C     -2.736204   -2.640859   -1.662346
O     -3.334329   -1.410562   -1.268995
C     -2.525988   -0.523847   -0.591065
C     -3.205966    0.461686    0.163147
N     -4.600892    0.388875    0.232613
C     -2.452366    1.390984    0.911697
C     -3.075964    2.439115    1.763108
O     -4.397379    2.630376    1.596005
O     -2.446264    3.134099    2.547389
C     -1.041072    1.342716    0.862672
O     -0.249172    2.210731    1.584413
C     -0.373406    0.392141    0.070805
C      1.103219    0.332277   -0.011166
C      1.780723    1.381818   -0.490699
C      3.246144    1.395707   -0.575434
C      4.007237    0.162819   -0.174203
N      5.374005    0.259808   -0.329416
C      3.314290   -0.899171    0.275661
C      4.076472   -2.116642    0.591456
O      3.523077   -3.218463    0.055925
O      5.138233   -2.172216    1.189826
C      1.840741   -0.881435    0.439720
O      1.237645   -1.821702    0.949465
O      3.830046    2.396359   -0.984819
C     -1.129981   -0.539476   -0.651458
H     -3.537397   -3.312001   -1.986525
H     -2.064585   -2.490709   -2.513453
H     -2.216012   -3.121913   -0.826974
H     -5.068938   -0.233126   -0.417269
H     -5.107363    1.175690    0.630397
H     -4.614186    3.356595    2.219168
H     -0.815182    2.755685    2.175630
H      1.290055    2.291702   -0.820311
H      5.991318   -0.445391    0.066571
H      5.748953    1.160412   -0.625903
H      4.101382   -3.953649    0.346509
H     -0.610893   -1.278432   -1.254798
