42

O      1.899233    2.472666    0.030752
C      1.134047    1.550614    0.269602
C     -0.289115    1.867776    0.705345
C     -1.277614    0.828565    0.442764
C     -0.910759   -0.391609    0.067842
O     -1.972247   -1.247492   -0.192540
C     -3.102106   -0.570756    0.418704
C     -4.365979   -0.948766   -0.339694
C     -2.762760    0.947066    0.481961
C     -3.317940    1.555484    1.774486
C     -3.252812    1.753831   -0.729112
O     -0.582625    2.937964    1.212034
C      1.509491    0.123743    0.066814
C      0.482134   -0.844245   -0.081948
C      0.847432   -2.189131   -0.345118
C     -0.156986   -3.300964   -0.521741
C      2.209062   -2.534916   -0.447472
C      3.203037   -1.577842   -0.275306
O      4.516762   -1.945860   -0.343961
C      2.859292   -0.250886   -0.021216
C      3.935065    0.707423    0.254927
O      4.444137    1.131604   -0.925731
C      5.455623    2.125671   -0.775681
O      4.263129    1.031741    1.383688
H     -3.186118   -0.982193    1.435696
H     -4.529663   -2.030417   -0.277032
H     -5.244842   -0.443020    0.070251
H     -4.280088   -0.717932   -1.406454
H     -2.886308    1.079705    2.662717
H     -4.405771    1.433769    1.826205
H     -3.105325    2.627987    1.840170
H     -2.907952    1.320816   -1.675432
H     -2.885605    2.786332   -0.690698
H     -4.346888    1.800778   -0.760261
H     -0.775972   -3.406281    0.374690
H      0.335107   -4.267467   -0.678575
H     -0.781489   -3.117147   -1.401396
H      2.484170   -3.568470   -0.648702
H      4.590209   -2.900594   -0.509386
H      5.057741    3.006695   -0.261987
H      6.316001    1.718054   -0.235593
H      5.785291    2.427701   -1.773613
