42
 xtb: 6.6.1 (8d0f1dd)
O      1.968100    2.351500    0.150600
C      1.109800    1.489900    0.258400
C     -0.343100    1.885600    0.521200
C     -1.274600    0.828700    0.405100
C     -0.922400   -0.476500    0.168600
O     -1.953600   -1.303500    0.115500
C     -3.186900   -0.566600    0.290000
C     -4.072700   -0.844500   -0.916200
C     -2.781500    0.915500    0.551600
C     -3.155400    1.334600    1.977700
C     -3.361600    1.926300   -0.439200
O     -0.600400    3.064000    0.790000
C      1.435600    0.062000    0.103900
C      0.440600   -0.932100    0.024800
C      0.815200   -2.270700   -0.172500
C     -0.189900   -3.364300   -0.278100
C      2.168400   -2.576800   -0.273800
C      3.160500   -1.607700   -0.181200
O      4.468000   -1.884700   -0.267200
C      2.780500   -0.270300    0.008900
C      3.844400    0.773100    0.164900
O      4.307500    1.173200   -1.006300
C      5.338000    2.165500   -0.999100
O      4.287500    1.115700    1.240900
H     -3.661700   -0.987700    1.183100
H     -4.250900   -1.913800   -0.984400
H     -5.023200   -0.335100   -0.803100
H     -3.592400   -0.512900   -1.832200
H     -2.742600    0.640300    2.707000
H     -4.236100    1.368000    2.088100
H     -2.751000    2.323200    2.182300
H     -3.091500    1.681500   -1.462500
H     -2.950000    2.906500   -0.209600
H     -4.442600    1.975400   -0.352200
H     -0.794300   -3.408400    0.624700
H      0.297900   -4.321400   -0.430300
H     -0.869200   -3.171700   -1.104900
H      2.456100   -3.606500   -0.426400
H      4.624300   -2.835900   -0.406400
H      4.908800    3.127200   -0.714200
H      6.113600    1.889500   -0.283700
H      5.722800    2.193600   -2.013800
