30

C      5.270386    0.532446   -0.246745
C      5.211652   -0.537397    0.669875
C      3.983693   -1.063303    1.095867
C      2.830040   -0.503909    0.592263
C      2.907782    0.560677   -0.319447
C      4.101341    1.098734   -0.756530
C      1.520623    0.928243   -0.663255
C      0.665577   -0.025796    0.137655
N      1.512087   -0.842019    0.855276
C     -0.665575    0.025702    0.066147
N     -1.512041    0.841960   -0.651488
C     -2.830011    0.503880   -0.388534
C     -3.983621    1.063331   -0.892171
C     -5.211611    0.537467   -0.466229
C     -5.270417   -0.532386    0.450373
C     -4.101413   -1.098708    0.960223
C     -2.907816   -0.560699    0.523182
C     -1.520674   -0.928306    0.867037
O     -1.159087   -1.805066    1.626616
O      1.158989    1.804987   -1.422829
H      6.238598    0.919019   -0.558484
H      6.137656   -0.962177    1.053305
H      3.949893   -1.886466    1.801324
H      4.122887    1.921559   -1.461999
H      1.163148   -1.566184    1.469357
H     -1.163057    1.566106   -1.265568
H     -3.949756    1.886485   -1.597638
H     -6.137591    0.962269   -0.849693
H     -6.238661   -0.918905    0.762077
H     -4.123021   -1.921543    1.665678
