25
 xtb: 6.6.1 (8d0f1dd)
C      4.157500    1.319500   -0.517900
C      2.715300    1.011100   -0.378700
C      2.239100   -0.121700    0.148500
C      0.835700   -0.423000    0.285600
C      0.369800   -1.599200    0.824100
C     -1.056100   -1.904800    0.955900
O     -1.410800   -2.984300    1.447000
C     -1.886600   -0.837000    0.462700
C     -1.317200    0.291500   -0.046100
O     -0.032400    0.533100   -0.153500
C     -2.377600    1.281900   -0.489700
N     -3.575600    0.525500   -0.185600
C     -3.361100   -0.688000    0.384000
O     -4.231900   -1.459500    0.741400
O     -2.298800    1.710300   -1.800000
O      1.222900   -2.543400    1.261000
H      4.773500    0.508200   -0.141900
H      4.393500    2.232800    0.026200
H      4.397500    1.499400   -1.564700
H      2.025500    1.764900   -0.733100
H      2.896200   -0.897600    0.511100
H     -2.324400    2.197700    0.116800
H     -4.500100    0.901900   -0.327700
H     -2.335300    0.968400   -2.423800
H      0.681300   -3.287800    1.598400
