49

C      6.848128   -2.816208   -0.237259
C      5.728987   -1.874906   -0.591755
O      5.875949   -0.929645   -1.355589
N      4.528427   -2.195093   -0.012653
C      3.319254   -1.379736   -0.213567
C      2.723493   -1.571562   -1.617595
S      2.215274   -0.020618   -2.450969
C      0.831360    0.441033   -1.517322
C     -0.335869   -0.188961   -1.651171
C     -1.514747    0.177094   -0.847314
N     -2.573374   -0.567733   -0.971219
C     -3.731587   -0.228569   -0.228243
C     -4.901007   -0.998247   -0.312231
C     -6.070616   -0.607974    0.357756
C     -6.073667    0.539103    1.149203
C     -4.912449    1.300293    1.269750
C     -3.745104    0.924523    0.592697
N     -2.589869    1.714829    0.693478
C     -1.413967    1.393991    0.038686
C     -0.243089    2.053386    0.122127
C      0.984529    1.566997   -0.552151
O      2.085485    2.039022   -0.283251
C     -0.217484    3.282258    0.944527
O     -0.905182    3.448130    1.945269
O      0.584326    4.216568    0.382846
C      0.678887    5.440427    1.113766
C     -4.975135   -2.224685   -1.122634
O     -5.866310   -2.499819   -1.907510
O     -4.006958   -3.104848   -0.810143
C      2.323860   -1.870436    0.834235
O      2.332076   -2.978502    1.354349
O      1.367182   -0.980761    1.163438
H      7.806449   -2.311911   -0.383922
H      6.797528   -3.698727   -0.881358
H      6.775479   -3.127616    0.811333
H      4.456093   -3.008321    0.593124
H      3.601404   -0.344169    0.003820
H      3.463797   -2.023966   -2.286279
H      1.869499   -2.258691   -1.605184
H     -0.475035   -1.013772   -2.341445
H     -6.977651   -1.201834    0.261270
H     -6.979546    0.840308    1.670091
H     -4.925755    2.194880    1.888610
H     -2.569877    2.476981    1.370208
H      0.903215    5.253171    2.168000
H      1.496855    6.030782    0.686715
H     -0.251698    6.007473    1.010012
H     -4.185287   -3.869979   -1.394607
H      0.843727   -1.443961    1.854607
