41
 xtb: 6.6.1 (8d0f1dd)
C     -5.137800    2.291200   -0.618600
C     -3.915600    1.476100   -0.356500
C     -2.642400    1.911300   -0.685700
C     -1.511900    1.159600   -0.399100
C     -1.625000   -0.090300    0.252100
C     -2.914000   -0.604100    0.460700
C     -4.047600    0.204000    0.198600
O     -5.278900   -0.266200    0.460100
O     -3.253800   -1.856000    0.870100
C     -2.462500   -2.980800    0.529600
C     -0.426100   -0.704800    0.823500
O     -0.511300   -1.531600    1.750200
C      0.868600   -0.259600    0.322600
C      2.044700   -0.953400    0.690000
C      3.283400   -0.566600    0.147000
C      3.345900    0.550400   -0.716300
C      2.195500    1.262600   -1.015300
C      0.965200    0.863700   -0.513000
C     -0.210900    1.682400   -0.822800
O     -0.109400    2.747000   -1.434600
O      4.580900    0.844100   -1.175700
C      4.738100    1.955000   -2.044100
O      4.489100   -1.141700    0.370900
C      4.638900   -2.302000    1.174900
O      2.001600   -1.989900    1.545200
H     -5.856900    1.706900   -1.188600
H     -5.612200    2.553900    0.325200
H     -4.887500    3.196900   -1.160400
H     -2.498700    2.865000   -1.170900
H     -5.217500   -1.174300    0.806000
H     -3.160700   -3.809000    0.421900
H     -1.926200   -2.812700   -0.406400
H     -1.743700   -3.202600    1.320900
H      2.215600    2.141800   -1.638500
H      4.448900    2.884900   -1.549700
H      4.154900    1.824700   -2.958300
H      5.798800    1.977100   -2.281500
H      5.700900   -2.531900    1.118600
H      4.054900   -3.135900    0.784400
H      4.353200   -2.109900    2.209600
H      1.071300   -2.075400    1.882000
