41

C     -5.050758    2.297999   -0.524368
C     -3.866366    1.407215   -0.289223
C     -2.584099    1.805577   -0.681676
C     -1.467023    0.988782   -0.429077
C     -1.613989   -0.247751    0.204486
C     -2.902606   -0.661984    0.572906
C     -4.003722    0.179497    0.356316
O     -5.242778   -0.201318    0.798509
O     -3.154350   -1.846242    1.221105
C     -3.348332   -2.902614    0.273781
C     -0.408849   -1.068454    0.476603
O     -0.478404   -2.167388    1.018360
C      0.929586   -0.574734    0.086741
C      2.082002   -1.330802    0.347875
C      3.341767   -0.845780   -0.032631
C      3.469916    0.384428   -0.696490
C      2.320109    1.134432   -0.946695
C      1.057564    0.653874   -0.556446
C     -0.134617    1.472369   -0.841395
O     -0.016586    2.548480   -1.415752
O      4.741629    0.761795   -1.037021
C      4.891298    1.938415   -1.820879
O      4.460446   -1.619769    0.170358
C      4.989377   -1.383423    1.473806
O      2.029116   -2.551215    0.976523
H     -5.843838    1.750481   -1.044035
H     -5.434701    2.674373    0.429105
H     -4.786277    3.159453   -1.146630
H     -2.447156    2.767494   -1.176381
H     -5.101610   -0.991011    1.355768
H     -3.379443   -3.845642    0.827305
H     -4.305556   -2.779539   -0.244014
H     -2.534390   -2.961695   -0.456682
H      2.376233    2.098334   -1.445636
H      4.577267    2.825160   -1.260808
H      4.349361    1.855555   -2.768818
H      5.954410    2.051714   -2.053957
H      5.896692   -1.985458    1.580805
H      4.285789   -1.692353    2.254141
H      5.264695   -0.331320    1.607287
H      1.088193   -2.766934    1.164967
