35

O     -1.162302    0.131485   -2.209726
C     -0.913465    0.092307   -1.012511
C      0.478089    0.044283   -0.440199
O      0.710618    0.000088    0.973060
C      1.508919    0.065915   -1.304941
C      2.936101    0.051840   -0.948781
C      3.464789   -0.831902    0.005016
C      4.829906   -0.813510    0.277072
O      5.393703   -1.643218    1.207379
C      5.673782    0.059824   -0.402501
O      7.011282    0.067165   -0.130894
C      5.173092    0.926215   -1.360297
C      3.803441    0.918309   -1.636388
C     -1.919042    0.085077    0.012844
C     -3.337600    0.121091   -0.055145
C     -4.299203    0.177392   -1.082339
C     -5.649545    0.197102   -0.718397
O     -6.628810    0.251376   -1.668400
C     -6.054093    0.162603    0.614600
C     -5.113982    0.106433    1.648306
C     -3.774766    0.087593    1.266953
O     -2.712502    0.033730    2.119204
C     -1.590943    0.034216    1.347431
C     -0.282749   -0.018137    1.930118
O     -0.021437   -0.083395    3.124518
H      1.315361    0.129331   -2.376108
H      2.817232   -1.532108    0.522562
H      4.682620   -2.147107    1.639722
H      7.124976   -0.613884    0.561838
H      5.840617    1.600815   -1.887780
H      3.419945    1.602135   -2.391276
H     -3.987247    0.204291   -2.121563
H     -6.214106    0.273794   -2.547101
H     -7.115197    0.179792    0.853416
H     -5.407483    0.079056    2.690764
