54
 xtb: 6.6.1 (8d0f1dd)
C      4.421800   -1.015700    0.874200
C      3.172400   -1.613700    0.306200
C      3.075000   -2.988200    0.292300
C      1.876300   -3.641400    0.002400
O      1.889100   -4.975000   -0.075100
C      0.695100   -2.878200   -0.080700
C      0.780400   -1.465700   -0.074300
C      2.044800   -0.836400   -0.062000
C      2.109600    0.577200   -0.319000
C      3.239500    1.213600   -0.893000
C      4.281900    0.472700   -1.671300
C      3.317100    2.589300   -0.875600
C      2.280200    3.381800   -0.381100
O      2.472400    4.702300   -0.319100
C      1.047700    2.769600   -0.079800
C      0.955600    1.357500   -0.085600
C     -0.311300    0.721100    0.076700
C     -1.492100    1.514400    0.168300
C     -2.754400    0.885500    0.179900
C     -3.900800    1.697800   -0.062800
O     -5.041000    1.117700   -0.449200
C     -3.801200    3.072500    0.012700
C     -2.575000    3.701400    0.214500
O     -2.569300    5.030900    0.320300
C     -1.395400    2.927900    0.205100
C     -0.115800    3.582900    0.173000
O     -0.015400    4.838500    0.317400
C     -2.829400   -0.537100    0.332100
C     -4.004200   -1.204900    0.787100
O     -4.975600   -0.493400    1.366900
C     -4.089800   -2.580400    0.709000
C     -3.007500   -3.353000    0.295300
O     -3.184600   -4.671800    0.204900
C     -1.759700   -2.730800    0.082100
C     -1.673200   -1.316700    0.121000
C     -0.406700   -0.676100   -0.012000
C     -0.586200   -3.538700   -0.111900
O     -0.669300   -4.795100   -0.260700
H      4.339700    0.059200    0.987600
H      5.290300   -1.255200    0.266600
H      4.586300   -1.455800    1.856700
H      3.929700   -3.599700    0.535900
H      0.955000   -5.288300   -0.198800
H      4.319100    0.900600   -2.672100
H      5.268900    0.596300   -1.233600
H      4.048800   -0.582500   -1.756200
H      4.183000    3.093900   -1.274900
H      1.622100    5.127800   -0.033000
H     -5.739200    1.776800   -0.596400
H     -4.669700    3.699900   -0.114600
H     -1.622900    5.332600    0.381900
H     -5.711300   -1.062400    1.647800
H     -4.991400   -3.098200    0.997400
H     -2.309100   -5.087100   -0.022300
