98
 xtb: 6.6.1 (8d0f1dd)
O      2.817600   -3.140100    0.122400
C      1.865100   -2.367900    0.133900
N      0.889400   -2.573900    1.093000
C     -0.214600   -1.815000    1.344900
O     -1.023100   -2.125700    2.215900
C      1.678900   -1.196300   -0.725100
C      0.568700   -0.376700   -0.485800
C     -0.367800   -0.631800    0.493600
N     -1.451300    0.115700    0.760700
C     -1.929100    1.214600   -0.033300
C     -2.637800    0.745700   -1.313600
C     -3.819700   -0.188000   -1.050500
C     -4.982700    0.486900   -0.325300
C     -6.171000   -0.463000   -0.184600
C     -7.336400    0.127300    0.610700
C     -8.031200    1.282900   -0.108300
C     -9.270100    1.793700    0.631500
C    -10.464200    0.846300    0.526400
C    -11.688700    1.328400    1.306000
C    -12.342500    2.574300    0.710900
C    -13.620500    2.945700    1.454000
C      2.649100   -0.893800   -1.721500
C      3.500500   -1.875700   -2.246400
C      4.535400   -1.600900   -3.114000
C      4.771800   -0.215900   -3.530100
N      3.878900    0.696800   -3.052000
C      2.820800    0.483500   -2.186900
O      2.157900    1.461000   -1.854400
O      5.700200    0.117100   -4.262700
N      5.374200   -2.502300   -3.656000
C      5.520600   -3.873700   -3.237600
C      5.997400   -4.006000   -1.783100
C      7.276100   -3.214900   -1.518600
C      7.678800   -3.214000   -0.043000
C      6.630300   -2.625200    0.905500
C      6.177600   -1.215400    0.528300
C      5.281200   -0.618100    1.611100
C      4.565700    0.663100    1.179100
C      5.483100    1.790200    0.703100
C      6.446800    2.284000    1.779300
C      7.259300    3.488100    1.307700
C      8.231100    3.971000    2.377900
H      1.028700   -3.389000    1.685300
H      0.444100    0.489700   -1.111600
H     -2.063200   -0.274200    1.467600
H     -2.614700    1.796600    0.581200
H     -1.082000    1.848400   -0.306200
H     -1.913100    0.225400   -1.941900
H     -2.981200    1.628400   -1.853400
H     -4.180500   -0.559800   -2.012100
H     -3.482700   -1.054100   -0.476200
H     -4.673000    0.806700    0.670800
H     -5.283100    1.372700   -0.886500
H     -5.832000   -1.372400    0.318500
H     -6.525100   -0.750600   -1.177400
H     -6.974900    0.473200    1.581900
H     -8.060600   -0.668500    0.793700
H     -7.328100    2.110600   -0.213700
H     -8.321100    0.962300   -1.111700
H     -9.548200    2.761400    0.210500
H     -9.022900    1.948000    1.684500
H    -10.733800    0.723300   -0.525400
H    -10.179600   -0.134800    0.911100
H    -11.400600    1.531400    2.340200
H    -12.429000    0.524400    1.323000
H    -12.575200    2.389900   -0.340500
H    -11.647900    3.414400    0.756500
H    -14.344000    2.135200    1.398000
H    -14.069200    3.837200    1.022700
H    -13.407200    3.140900    2.502700
H      3.329600   -2.895500   -1.951300
H      4.011900    1.662200   -3.342500
H      6.107800   -2.090300   -4.219900
H      6.240400   -4.340500   -3.909600
H      4.559700   -4.384600   -3.343300
H      5.211400   -3.656600   -1.116200
H      6.166700   -5.062400   -1.573800
H      8.095200   -3.642300   -2.101600
H      7.143600   -2.182000   -1.845100
H      8.603000   -2.639700    0.058000
H      7.890100   -4.238200    0.272200
H      7.060000   -2.598100    1.910200
H      5.753800   -3.274500    0.948100
H      7.054100   -0.582400    0.377900
H      5.613400   -1.245700   -0.405800
H      5.869300   -0.428300    2.510600
H      4.517800   -1.357200    1.869700
H      3.968600    1.027300    2.019200
H      3.870700    0.421300    0.370200
H      6.049600    1.458600   -0.169700
H      4.852400    2.623600    0.381600
H      5.878700    2.558600    2.671200
H      7.132400    1.481100    2.055000
H      6.578500    4.299800    1.041200
H      7.815200    3.215600    0.407500
H      8.931000    3.180900    2.640400
H      7.692100    4.263000    3.276300
H      8.797200    4.828100    2.021900
