33
 xtb: 6.6.1 (8d0f1dd)
C      5.380800    0.166600   -0.283300
C      3.939800   -0.205800   -0.263900
C      3.508200   -1.479000   -0.251200
C      2.105100   -1.866500   -0.231200
O      1.795200   -3.078100   -0.219900
C      1.126000   -0.806500   -0.225100
C     -0.249000   -1.108700   -0.205700
C     -1.215200   -0.059500   -0.201300
C     -2.620700   -0.311800   -0.183200
C     -3.503400    0.751600   -0.179800
C     -3.048900    2.076700   -0.193800
C     -1.693200    2.342400   -0.211300
C     -0.771400    1.289600   -0.215400
C      0.616000    1.558400   -0.233800
C      1.545900    0.551600   -0.238900
C      2.972300    0.910300   -0.258900
O      3.348900    2.079500   -0.271300
O     -3.986600    3.041000   -0.189000
O     -3.009500   -1.595600   -0.170300
C     -4.392400   -1.906000   -0.149900
O     -0.669800   -2.362000   -0.191600
H      5.585800    0.775100   -1.162900
H      5.606700    0.784600    0.584500
H      6.016100   -0.712800   -0.286100
H      4.209800   -2.302200   -0.255000
H     -4.569500    0.601900   -0.166400
H     -1.325800    3.356400   -0.222200
H      0.962500    2.581200   -0.244400
H     -3.585900    3.924800   -0.199700
H     -4.435100   -2.992300   -0.141800
H     -4.870700   -1.510600    0.748800
H     -4.894400   -1.523000   -1.041100
H      0.122300   -2.971500   -0.197900
