71
 xtb: 6.6.1 (8d0f1dd)
C      8.720000    0.474400   -0.303500
C      7.331800    0.066000   -0.651200
C      7.000900   -0.704200   -1.713400
C      5.635000   -1.060100   -1.988200
O      5.312600   -1.772100   -2.965500
C      4.659400   -0.531900   -1.050600
C      5.101900    0.265100    0.032300
O      6.421600    0.544300    0.207800
C      4.215000    0.784000    0.940400
C      2.838000    0.533400    0.810200
C      1.932200    1.063300    1.748700
C      0.584300    0.827900    1.643500
C      0.087100    0.054000    0.559000
C      0.955500   -0.484800   -0.362400
C      2.358200   -0.260600   -0.269000
C      3.287500   -0.795200   -1.198800
O      2.855100   -1.539900   -2.215200
O      0.449200   -1.279800   -1.375300
C     -0.079100   -0.554800   -2.476000
C     -1.363400   -0.226300    0.467300
C     -1.783300   -1.520600    0.624700
C     -3.156600   -1.873100    0.509500
C     -4.106600   -0.865100    0.253900
C     -3.689500    0.483200    0.099600
C     -2.306400    0.803400    0.194600
C     -1.883200    2.116400   -0.025000
C     -2.792700    3.122100   -0.292100
C     -4.161400    2.829900   -0.357500
C     -4.613300    1.538500   -0.173900
O     -5.914000    1.199000   -0.242300
C     -6.884400    2.191400   -0.525700
O     -2.274800    4.359400   -0.479100
C     -3.144100    5.443800   -0.761800
O     -5.395600   -1.160500    0.152500
C     -3.558400   -3.247200    0.656000
O     -4.738000   -3.622600    0.584600
C     -2.466500   -4.249500    0.942000
C     -1.113300   -3.766500    0.418300
O     -0.841300   -2.463300    0.919800
C      0.042600   -4.646300    0.890700
O     -1.196400   -3.724800   -0.980200
O     -0.355600    1.265700    2.509200
C      0.053900    2.041700    3.622100
H      8.971400    0.100100    0.686700
H      9.424900    0.089100   -1.030600
H      8.781400    1.560000   -0.268400
H      7.757100   -1.073300   -2.384900
H      4.583000    1.384900    1.754700
H      2.336200    1.648500    2.557600
H      3.647500   -1.827600   -2.751900
H     -0.854800    0.143600   -2.149500
H      0.716700   -0.009900   -2.991700
H     -0.508100   -1.296700   -3.144600
H     -0.835900    2.365300    0.010100
H     -4.864600    3.617700   -0.560000
H     -6.708500    2.647900   -1.502500
H     -6.902700    2.958600    0.252000
H     -7.832300    1.658700   -0.536400
H     -3.692300    5.278200   -1.691900
H     -2.491600    6.306800   -0.872100
H     -3.842000    5.614700    0.060900
H     -5.517200   -2.140000    0.277500
H     -2.410900   -4.385600    2.024400
H     -2.730500   -5.201600    0.482500
H     -0.093700   -5.653100    0.509800
H      0.974700   -4.235700    0.510800
H      0.078600   -4.658100    1.974700
H     -0.410900   -3.265600   -1.322800
H      0.732800    1.477600    4.265500
H      0.530400    2.969700    3.298300
H     -0.862300    2.268000    4.161900
