88
 xtb: 6.6.1 (8d0f1dd)
C      3.662600   -4.502200   -3.098900
C      4.084700   -3.628100   -1.922700
C      2.933900   -3.516800   -0.887200
C      3.520800   -3.133300    0.445800
O      4.070700   -3.960400    1.147100
C      3.569300   -1.650900    0.774000
C      3.971900   -1.411900    2.233900
C      2.330200   -0.861100    0.421700
C      2.420800    0.389200   -0.129300
C      1.231200    1.086700   -0.557600
C      1.278400    2.302900   -1.223200
C      0.120100    2.962300   -1.647500
O      0.269600    4.151800   -2.224500
C     -1.139200    2.359300   -1.463200
C     -1.218500    1.137400   -0.774100
C     -0.043700    0.510000   -0.302200
C     -0.139400   -0.705800    0.401100
C      1.040600   -1.416200    0.758700
C      0.901300   -2.608300    1.453800
C     -0.351300   -3.123500    1.802900
O     -0.377800   -4.300200    2.421500
C     -1.518900   -2.393400    1.504200
C     -1.409400   -1.188200    0.790400
C     -2.587300   -0.476800    0.425800
C     -3.818900   -0.799300    1.123600
C     -3.946200   -2.003300    1.783500
C     -2.821900   -2.904700    1.905100
O     -2.940900   -4.053600    2.390000
O     -5.179400   -2.353700    2.287100
C     -5.257200   -3.043100    3.528800
O     -4.714200    0.201000    1.103500
C     -5.883300    0.206200    1.907100
C     -2.492200    0.561500   -0.509000
C     -3.622600    1.023800   -1.296000
C     -3.562400    2.239600   -1.941800
C     -2.343800    3.017400   -1.947700
O     -2.302000    4.181700   -2.409500
O     -4.698900    2.740100   -2.544900
C     -4.584100    3.305100   -3.846000
O     -4.614800    0.124700   -1.365800
C     -5.744100    0.282100   -2.209900
C      3.752100    1.078400   -0.329700
C      4.254200    0.970000   -1.773700
C      3.778000    2.508000    0.187700
O      4.392700    3.390000   -0.381100
C      3.107800    2.743500    1.517200
C      2.464700    4.143800    1.592500
C      1.642100    4.288800    2.868200
O      3.444400    5.160800    1.586400
O      4.493500   -2.347700   -2.348200
H      4.449000   -4.508800   -3.849600
H      2.746600   -4.120100   -3.544200
H      3.492400   -5.521500   -2.767200
H      4.960100   -4.067600   -1.430100
H      2.206000   -2.786500   -1.235100
H      2.467900   -4.496400   -0.789100
H      4.388100   -1.328300    0.117200
H      3.147600   -1.654400    2.899100
H      4.249700   -0.374300    2.393000
H      4.814500   -2.050600    2.486600
H      2.205800    2.801700   -1.445700
H     -0.631600    4.509200   -2.450300
H      1.749900   -3.198300    1.755800
H     -1.327600   -4.553100    2.581200
H     -6.297100   -2.948300    3.834400
H     -4.993800   -4.095500    3.420000
H     -4.604700   -2.582900    4.274500
H     -6.571600   -0.586500    1.616000
H     -6.332400    1.180900    1.725000
H     -5.633900    0.107600    2.964900
H     -4.102500    2.601900   -4.531200
H     -4.024000    4.240400   -3.831500
H     -5.608400    3.489800   -4.160400
H     -6.332700    1.155100   -1.930200
H     -5.444900    0.360200   -3.256500
H     -6.323000   -0.627300   -2.060200
H      4.498600    0.603000    0.316300
H      5.088900    1.652500   -1.915400
H      3.472300    1.233500   -2.479300
H      4.589200   -0.042400   -1.978000
H      2.364700    1.977000    1.725800
H      3.884400    2.698500    2.286400
H      1.801000    4.273200    0.719900
H      1.227600    5.291600    2.914700
H      2.278500    4.139700    3.735900
H      0.833000    3.565400    2.877800
H      4.014500    5.023600    0.811100
H      3.874200   -2.045600   -3.029300
