30
 xtb: 6.6.1 (8d0f1dd)
C      4.716400   -1.135100   -0.643500
C      3.393400   -0.463400   -0.499100
C      2.217700   -1.221400   -0.526100
C      0.975800   -0.628500   -0.395100
C      0.860200    0.769200   -0.230900
C      2.046000    1.536600   -0.207300
C      3.288600    0.903100   -0.341000
O      2.054300    2.860900   -0.059500
C     -0.433500    1.407000   -0.087600
O     -0.531500    2.649300    0.056300
C     -1.618500    0.564800   -0.113200
C     -2.898500    1.145800    0.029800
C     -4.026700    0.318700    0.004400
C     -3.932900   -1.061800   -0.159600
C     -2.658100   -1.620400   -0.299100
C     -1.525300   -0.830600   -0.277000
C     -0.214200   -1.493500   -0.430100
O     -0.126300   -2.705900   -0.577700
O     -4.994000   -1.861000   -0.189500
Cl    -5.589700    1.061700    0.185200
O     -3.094400    2.452800    0.190300
H      4.793300   -1.587300   -1.630000
H      5.530100   -0.429200   -0.514100
H      4.811500   -1.932000    0.089900
H      2.258600   -2.293300   -0.649300
H      4.165400    1.531100   -0.314400
H      1.127100    3.191200    0.027300
H     -2.561300   -2.686900   -0.426700
H     -5.821000   -1.352900   -0.088900
H     -2.212600    2.911000    0.188100
