33

C      5.335119    0.363294   -0.514178
C      5.492303    0.930254    0.748452
C      4.390157    1.166425    1.575586
C      3.126481    0.812767    1.088633
C      2.936899    0.242273   -0.173779
C      4.064977    0.015051   -0.987016
C      1.539320    0.020469   -0.323128
C      0.922030    0.452118    0.828261
N      1.886323    0.928827    1.675259
C     -0.490711    0.408793    1.093068
O     -0.944760    0.817968    2.150671
C     -1.344102   -0.167331   -0.011056
C     -0.699625   -0.606024   -1.185646
C      0.769454   -0.538406   -1.409154
O      1.266189   -0.937476   -2.454554
C     -1.476470   -1.133027   -2.196601
N     -2.817519   -1.250784   -2.121363
C     -3.442134   -0.837565   -1.010451
C     -4.822487   -0.980061   -0.981935
C     -5.585366   -0.588078    0.115835
C     -4.954145   -0.038140    1.217076
C     -3.566318    0.114883    1.210820
C     -2.766610   -0.278423    0.100515
H      6.206025    0.188194   -1.141283
H      6.488514    1.193729    1.097131
H      4.518485    1.608442    2.558479
H      3.951407   -0.427047   -1.973901
H      1.705629    1.309115    2.595984
H     -1.042271   -1.489793   -3.128637
H     -5.323530   -1.412339   -1.846304
H     -6.664658   -0.714328    0.104035
H     -5.532666    0.273843    2.083390
H     -3.125941    0.552378    2.102827
