33
 xtb: 6.6.1 (8d0f1dd)
C      5.280500    0.358600   -0.509200
C      5.431300    0.929100    0.763400
C      4.350900    1.164800    1.583000
C      3.092500    0.814100    1.100400
C      2.930100    0.235000   -0.188700
C      4.043800    0.007500   -0.998000
C      1.531400    0.010100   -0.346100
C      0.921300    0.451200    0.823900
N      1.864200    0.928500    1.678000
C     -0.498500    0.415600    1.106900
O     -0.937400    0.833000    2.175300
C     -1.320200   -0.157200    0.004600
C     -0.704200   -0.597600   -1.166800
C      0.761600   -0.546600   -1.427000
O      1.239400   -0.953000   -2.483300
C     -1.503800   -1.135300   -2.196400
N     -2.797400   -1.256500   -2.139600
C     -3.429900   -0.842400   -1.024200
C     -4.832800   -0.984300   -0.987900
C     -5.540100   -0.586000    0.110500
C     -4.869500   -0.031500    1.212500
C     -3.509800    0.119500    1.208800
C     -2.737500   -0.277600    0.094900
H      6.158800    0.193900   -1.113600
H      6.421900    1.187600    1.103000
H      4.470400    1.603500    2.560100
H      3.916200   -0.431900   -1.974800
H      1.658800    1.303400    2.593200
H     -1.016100   -1.473800   -3.101600
H     -5.310600   -1.414200   -1.852800
H     -6.613000   -0.694100    0.138400
H     -5.436900    0.279900    2.075700
H     -3.015500    0.546600    2.064700
