35
 xtb: 6.6.1 (8d0f1dd)
O     -1.368500   -2.199800   -0.620100
C     -1.169800   -1.029400   -0.253900
C     -2.231200   -0.065100   -0.032200
C     -1.893200    1.238100    0.381600
C     -2.856000    2.209300    0.611600
C     -4.195800    1.897400    0.429100
O     -5.181100    2.779500    0.628400
C     -4.547700    0.605700    0.018000
C     -3.605400   -0.371300   -0.213200
C     -4.054200   -1.724500   -0.647100
O     -0.612100    1.636600    0.583500
C      0.397800    0.779900    0.391500
C      0.192400   -0.539800   -0.017800
C      1.313500   -1.400700   -0.203500
O      1.143600   -2.648100   -0.587900
C      1.687500    1.261900    0.619000
C      2.774700    0.426700    0.438600
C      2.615500   -0.910200    0.027600
C      3.787400   -1.784800   -0.159200
C      5.094500   -1.194500    0.098000
C      5.267200    0.082900    0.491900
O      6.465700    0.615200    0.725100
C      4.109700    0.986100    0.692100
O      4.309800    2.138600    1.053000
O      3.699500   -2.957300   -0.514100
H     -2.531400    3.187200    0.927800
H     -4.843900    3.645100    0.912400
H     -5.596000    0.392300   -0.114900
H     -3.718500   -2.481300    0.059700
H     -3.612800   -1.981700   -1.608200
H     -5.136200   -1.759400   -0.726100
H      0.162100   -2.825900   -0.705400
H      1.834300    2.282500    0.933900
H      5.947300   -1.841200   -0.043300
H      6.351400    1.550100    1.001800
