46

C     -2.356662   -2.767928   -2.175768
C     -3.006450   -1.590984   -1.427495
C     -3.239762   -1.925628    0.050852
C     -1.939010   -2.145660    0.817843
C     -0.834897   -1.169001    0.478837
C      0.320920   -1.127548    1.280899
C      1.379458   -0.252712    0.988597
C      1.291301    0.575941   -0.125273
C      0.155540    0.534296   -0.943641
C     -0.911191   -0.335140   -0.653767
C     -2.140431   -0.314252   -1.557621
C     -2.977668    0.935068   -1.281387
O     -3.266615    1.359179   -0.168212
O     -3.336608    1.534150   -2.455263
C     -4.144770    2.698593   -2.289102
C      2.389826    1.503415   -0.462797
O      2.314532    2.216058   -1.456614
C      3.581643    1.559434    0.405798
C      3.679279    0.732101    1.523753
C      2.583512   -0.202223    1.841123
O      2.674631   -0.941071    2.820827
C      4.823404    0.801629    2.330090
C      5.854541    1.687270    2.022950
C      5.752904    2.513222    0.904727
C      4.618473    2.450748    0.095084
O      5.004501    0.026979    3.443909
O      0.365044   -1.986316    2.351764
O     -4.280912   -1.385521   -2.053618
H     -2.304032   -2.557375   -3.250470
H     -2.963084   -3.675150   -2.071088
H     -1.345185   -2.991363   -1.824842
H     -3.812625   -1.117268    0.523493
H     -3.879647   -2.812063    0.150278
H     -1.569504   -3.158670    0.614556
H     -2.166409   -2.091323    1.889551
H      0.097847    1.191920   -1.812164
H     -1.786240   -0.241337   -2.596305
H     -3.592659    3.473418   -1.748127
H     -4.395225    3.081815   -3.282145
H     -5.075598    2.449953   -1.769676
H      6.737120    1.732243    2.656978
H      6.557251    3.204969    0.664435
H      4.545818    3.098657   -0.777389
H      4.216410   -0.549844    3.552670
H      1.206925   -1.843478    2.837931
H     -4.825695   -2.179208   -1.906819
