46
 xtb: 6.6.1 (8d0f1dd)
C     -2.442400   -2.824900   -2.119900
C     -3.032400   -1.620400   -1.382600
C     -3.210200   -1.894400    0.115000
C     -1.885400   -2.219800    0.790500
C     -0.810500   -1.244000    0.431400
C      0.342800   -1.199800    1.248700
C      1.383700   -0.291200    0.972600
C      1.257100    0.556400   -0.148100
C      0.134000    0.480500   -0.950200
C     -0.901400   -0.411200   -0.669300
C     -2.106700   -0.397200   -1.564700
C     -2.910100    0.864200   -1.276100
O     -3.323200    1.192700   -0.186500
O     -3.086300    1.573700   -2.375600
C     -3.861300    2.772500   -2.273500
C      2.298000    1.536000   -0.489600
O      2.186500    2.281500   -1.458600
C      3.480100    1.586100    0.387700
C      3.596500    0.734900    1.505900
C      2.554800   -0.228400    1.831300
O      2.666400   -0.982300    2.824800
C      4.752200    0.833700    2.312000
C      5.748800    1.765700    1.984000
C      5.615100    2.584400    0.887500
C      4.481400    2.496300    0.088500
O      4.959900    0.079500    3.389700
O      0.377700   -2.048700    2.274000
O     -4.274200   -1.241000   -1.966900
H     -2.527900   -2.666100   -3.192300
H     -2.980800   -3.731000   -1.854200
H     -1.393800   -2.947800   -1.869700
H     -3.643300   -0.999400    0.566600
H     -3.908900   -2.720100    0.255500
H     -1.549000   -3.222800    0.515000
H     -2.008200   -2.220500    1.875100
H      0.072300    1.137900   -1.805300
H     -1.800800   -0.332400   -2.612200
H     -3.479200    3.395100   -1.463600
H     -3.760300    3.269300   -3.233100
H     -4.902100    2.518900   -2.071700
H      6.615500    1.811000    2.623500
H      6.389000    3.295400    0.647100
H      4.353700    3.128600   -0.776600
H      4.196300   -0.535700    3.519300
H      1.218000   -1.921000    2.781800
H     -4.881700   -1.994000   -1.929900
