25

O     -3.802200    1.744784    0.619852
C     -2.855666    1.544160   -0.118122
O     -2.305037    2.516806   -0.863038
C     -2.276004    0.230339   -0.420150
C     -3.161001   -0.769865   -0.846619
C     -2.667018   -2.028053   -1.150639
C     -1.301591   -2.270724   -1.014219
C     -0.422816   -1.288588   -0.568968
C     -0.905620    0.000469   -0.250894
N     -0.050475    0.943926    0.217084
C      1.249302    0.623866    0.341516
C      2.152150    1.572349    0.807755
C      3.508548    1.276215    0.949159
C      3.969520    0.008915    0.618464
C      3.069191   -0.949130    0.150086
C      1.716478   -0.662216    0.006392
N      0.876510   -1.610130   -0.444718
H     -2.763343    3.333685   -0.579139
H     -4.224144   -0.559490   -0.942958
H     -3.333257   -2.817293   -1.489866
H     -0.907996   -3.257478   -1.251236
H      1.787628    2.564022    1.064929
H      4.196666    2.033893    1.315411
H      5.023059   -0.237806    0.722928
H      3.427115   -1.942656   -0.108947
