25
 xtb: 6.6.1 (8d0f1dd)
O     -4.055400    1.736600    0.064000
C     -2.881100    1.575700   -0.219200
O     -2.044300    2.580300   -0.376000
C     -2.292900    0.235900   -0.450100
C     -3.127600   -0.781300   -0.841100
C     -2.640400   -2.073100   -1.112000
C     -1.312200   -2.351800   -0.984800
C     -0.411100   -1.343800   -0.559500
C     -0.899000   -0.020900   -0.274600
N     -0.080300    0.924100    0.175100
C      1.210500    0.625200    0.306500
C      2.115200    1.611700    0.770800
C      3.436800    1.310500    0.902400
C      3.925100    0.021400    0.585700
C      3.088300   -0.956700    0.141400
C      1.705000   -0.686500   -0.010100
N      0.878900   -1.646300   -0.420700
H     -2.464600    3.445300   -0.200900
H     -4.179800   -0.564400   -0.952000
H     -3.332300   -2.836800   -1.428900
H     -0.906300   -3.327500   -1.198100
H      1.718400    2.587500    0.999600
H      4.130700    2.059300    1.251400
H      4.978800   -0.179300    0.701500
H      3.439500   -1.945200   -0.106200
