62
 xtb: 6.6.1 (8d0f1dd)
C      3.367500    4.163100    0.022300
C      3.708300    2.712100   -0.058300
C      2.742600    1.796000   -0.485100
C      3.015200    0.448800   -0.535200
C      4.282400   -0.029300   -0.142800
C      5.288300    0.897400    0.191200
C      4.973200    2.254000    0.256900
O      6.547600    0.531800    0.486000
C      4.589000   -1.456300   -0.045500
O      5.699800   -1.922400   -0.271800
O      3.639300   -2.302000    0.376700
C      2.460500   -1.776800    0.990400
C      1.998100   -2.757000    2.082500
C      0.699400   -2.245700    2.645100
C     -0.046100   -1.327200    2.054600
C      0.218900   -0.724500    0.701600
C      1.373300   -1.440100   -0.027700
C      2.013000   -0.524600   -1.116700
O      1.044400    0.193200   -1.842200
C      0.684800   -2.640600   -0.707000
C     -0.706100   -2.155500   -0.944100
C     -1.653000   -2.676000   -1.785700
C     -2.912300   -2.062000   -1.874100
C     -3.195100   -0.907600   -1.108300
C     -2.209100   -0.391500   -0.227600
C     -0.978300   -1.024400   -0.158000
C     -2.477200    0.811400    0.568100
O     -1.633800    1.247300    1.368100
C     -3.757100    1.480700    0.391100
C     -4.024800    2.656700    1.113700
C     -5.265900    3.303500    0.950000
C     -6.211200    2.798600    0.105900
C     -5.972800    1.617900   -0.624600
C     -4.740400    0.955900   -0.486100
C     -4.485600   -0.259900   -1.239600
O     -5.367600   -0.732900   -2.000100
O     -6.956200    1.196900   -1.419100
O     -3.162000    3.212900    1.960100
O     -3.786500   -2.615600   -2.711700
O      1.838900   -4.083100    1.630200
H      4.239700    4.755400    0.279900
H      2.968600    4.507800   -0.928800
H      2.599300    4.318700    0.777400
H      1.772500    2.141900   -0.803300
H      5.758600    2.934100    0.545500
H      6.684200   -0.416000    0.285600
H      2.720300   -0.843500    1.509300
H      2.757300   -2.743000    2.881800
H      0.407300   -2.674000    3.590600
H     -0.949000   -0.974400    2.529700
H      0.393300    0.349400    0.803600
H      2.577100   -1.181900   -1.799200
H      0.608600   -0.395400   -2.470000
H      0.657500   -3.491700   -0.022900
H      1.187300   -2.963500   -1.618200
H     -1.470500   -3.548600   -2.391900
H     -5.437700    4.204700    1.515700
H     -7.165500    3.281700   -0.027400
H     -6.674600    0.362900   -1.874300
H     -2.338600    2.656400    1.994600
H     -4.631100   -2.095900   -2.695300
H      2.692000   -4.408600    1.309200
