28

O     -4.688208    1.693057    0.601925
C     -3.486043    1.025557    0.465306
C     -3.420223   -0.307215    0.556245
C     -2.143347   -1.008143    0.410515
C     -2.074902   -2.391606    0.504891
C     -0.836782   -2.980481    0.356688
N      0.302530   -2.288914    0.126660
C      0.253688   -0.938185    0.031714
C     -0.969109   -0.271159    0.171597
C     -0.974660    1.114762    0.067232
C     -2.263718    1.848015    0.212409
O     -2.385145    3.067497    0.138739
N      0.125794    1.865995   -0.161276
C      1.293379    1.230841   -0.294977
C      1.410088   -0.173718   -0.206515
C      2.682187   -0.769462   -0.359495
C      3.803790    0.015959   -0.593897
O      5.040486   -0.532999   -0.744910
C      3.688900    1.392334   -0.680505
C      2.434328    1.986232   -0.530115
H     -4.460325    2.642846    0.494282
H     -4.320636   -0.884805    0.740391
H     -2.952463   -3.002092    0.687976
H     -0.717502   -4.059057    0.419993
H      2.775862   -1.851011   -0.291974
H      4.968665   -1.498600   -0.660401
H      4.566677    2.005645   -0.863849
H      2.346689    3.068708   -0.598653
