35
 xtb: 6.6.1 (8d0f1dd)
C      4.951900   -0.093500    2.338900
C      3.703900    0.119300    1.549100
C      2.516200   -0.537500    1.841400
C      1.359900   -0.335100    1.102300
C      1.363600    0.562400    0.013700
C      0.168400    0.796700   -0.781000
C     -1.042800    0.081500   -0.427300
C     -2.228700    0.283300   -1.176200
O     -2.266500    1.127400   -2.217200
C     -3.398600   -0.413500   -0.827000
O     -4.618600   -0.339600   -1.435700
C     -4.858800    0.496300   -2.557200
C     -3.379800   -1.302300    0.261900
O     -4.487600   -1.975600    0.608800
C     -2.212700   -1.492700    0.989800
C     -1.052800   -0.816000    0.659500
C      0.147900   -1.066200    1.472000
O      0.128100   -1.854600    2.416900
O      0.198300    1.600600   -1.745500
C      2.556800    1.233800   -0.292800
O      2.690400    2.112800   -1.301800
C      3.720900    1.008100    0.475900
O      4.857500    1.658200    0.168200
H      4.787100   -0.810400    3.136000
H      5.745000   -0.450400    1.684600
H      5.285800    0.852200    2.761300
H      2.468700   -1.232500    2.666200
H     -1.368400    1.534900   -2.331700
H     -4.696000    1.545900   -2.312200
H     -5.906000    0.329300   -2.800700
H     -4.230500    0.216700   -3.402700
H     -5.220200   -1.741700    0.010500
H     -2.210600   -2.176600    1.823200
H      1.824100    2.194500   -1.770100
H      4.704200    2.235800   -0.601100
