74

C      8.294345   -0.270498   -1.208181
C      6.941324    0.330070   -0.819085
C      6.650580    1.540148   -1.688952
C      5.258690    2.048932   -1.425772
O      4.972396    3.210212   -1.704857
C      4.261496    1.060932   -0.928493
C      4.676636   -0.261970   -0.801361
O      5.959756   -0.689645   -1.014417
C      3.761109   -1.260348   -0.469689
C      2.419027   -0.953649   -0.204498
C      1.523613   -1.985210    0.111589
C      0.172926   -1.720955    0.351074
C     -0.314991   -0.403191    0.355951
C      0.610706    0.633077    0.092858
C      1.975089    0.387505   -0.253780
C      2.922940    1.381876   -0.648135
O      2.523591    2.689786   -0.779150
O      0.178224    1.947297    0.098242
C      0.092533    2.446736    1.440971
C     -1.758095   -0.130277    0.601015
C     -2.264539   -0.311682    1.901676
C     -3.607980   -0.105210    2.181328
C     -4.476044    0.314836    1.164178
C     -4.024131    0.523183   -0.175455
C     -2.644295    0.276699   -0.448853
C     -2.180344    0.439450   -1.778948
C     -3.002278    0.872746   -2.813036
C     -4.339547    1.122429   -2.550047
C     -4.859415    0.951413   -1.261903
O     -6.178620    1.215139   -0.974213
C     -7.087602    1.386723   -2.050334
O     -2.619551    1.077601   -4.110202
C     -1.220229    1.125119   -4.365911
O     -5.806081    0.524578    1.458773
C     -4.070996   -0.327033    3.569702
O     -5.212562    0.001999    3.892303
C     -3.097827   -0.898459    4.565360
C     -1.943103   -1.568172    3.837896
O     -1.372994   -0.670708    2.886665
C     -0.839952   -1.946190    4.823526
O     -2.385326   -2.766362    3.207449
O     -0.690334   -2.746158    0.664156
C     -0.741455   -3.746275   -0.355965
O      7.002195    0.725043    0.548494
H      8.508917   -1.161092   -0.604872
H      9.109900    0.441381   -1.038410
H      8.304509   -0.585449   -2.257954
H      6.704594    1.291821   -2.755115
H      7.354232    2.349801   -1.465041
H      4.112603   -2.289394   -0.413476
H      1.883449   -3.010041    0.171695
H      1.551915    2.734300   -0.715119
H     -0.932607    2.349355    1.809737
H      0.792069    1.953828    2.127604
H      0.338544    3.512818    1.414455
H     -1.142551    0.219240   -2.003639
H     -4.955575    1.467165   -3.373542
H     -7.057784    0.535521   -2.738148
H     -8.096933    1.438701   -1.630796
H     -6.899496    2.329222   -2.574970
H     -0.720901    1.859591   -3.724210
H     -1.081334    1.441176   -5.404317
H     -0.770075    0.133059   -4.255929
H     -5.951013    0.418987    2.424876
H     -3.632959   -1.622182    5.191595
H     -2.747305   -0.061855    5.182045
H     -0.463904   -1.068505    5.357195
H     -1.192003   -2.685066    5.549815
H      0.011451   -2.389655    4.295146
H     -1.639566   -3.042146    2.642764
H     -1.674863   -4.302259   -0.228064
H     -0.743190   -3.308634   -1.360881
H      0.088705   -4.451432   -0.242353
H      7.482291    0.030205    1.029674
