105

C      3.520650    0.863348   -2.574002
C      3.625845    0.372608   -1.152025
C      2.595874   -0.213299   -0.501385
C      1.250727   -0.430043   -1.001583
C      0.302839   -1.070526   -0.295274
C     -1.046180   -1.267550   -0.790690
C     -2.069657   -1.891154   -0.167448
C     -1.974892   -2.558286    1.182818
C     -3.360005   -1.940863   -0.861351
C     -4.535468   -2.339207   -0.346800
C     -5.764872   -2.344766   -1.118219
C     -7.015671   -2.563949   -0.662158
C     -7.388889   -2.862413    0.766537
C     -8.124499   -2.524408   -1.615040
C     -9.281686   -2.007922   -1.314065
C    -10.400922   -1.396427   -1.000212
C    -11.453422   -2.061291   -0.108075
C    -12.873464   -1.559388   -0.386657
C    -12.949781   -0.035425   -0.399151
C    -12.015716    0.511112   -1.473996
C    -10.538806    0.123082   -1.250653
C     -9.945921    0.909698   -0.061288
C     -9.768165    0.562845   -2.522376
O    -14.309531    0.319114   -0.720386
C    -14.708519    1.560731   -0.327049
O    -14.021921    2.377859    0.266948
C    -16.144503    1.779900   -0.700530
C    -11.449796   -3.596837   -0.225004
O    -11.124004   -1.727982    1.245408
C      4.893159    0.534546   -0.430203
C      6.070722    0.987735   -0.905470
C      7.259087    1.073380   -0.074433
C      8.530279    1.297144   -0.475396
C      8.962123    1.471536   -1.914092
C      9.576724    1.354183    0.548447
C     10.895690    1.507663    0.348456
C     11.928556    1.563587    1.416440
C     12.570935    2.941658    1.698477
O     11.678088    2.304633    2.625697
C     13.966056    3.066850    2.261727
C     14.760856    1.761037    2.261873
C     13.913197    0.558657    2.664966
C     12.761700    0.284169    1.663917
C     13.362145   -0.244052    0.340637
C     11.864594   -0.819359    2.263193
O     15.847610    1.879094    3.183649
C     11.992402    4.218326    1.152505
H      3.156475    1.898203   -2.586035
H      2.841822    0.246924   -3.172532
H      4.473188    0.838190   -3.111298
H      2.755537   -0.560561    0.520597
H      1.010281   -0.038678   -1.986499
H      0.545573   -1.441247    0.692743
H     -1.230590   -0.826360   -1.770149
H     -2.584435   -2.030730    1.925736
H     -2.322620   -3.597494    1.113571
H     -0.960400   -2.613598    1.573759
H     -3.350380   -1.598250   -1.898633
H     -4.595399   -2.658956    0.688017
H     -5.633392   -2.117683   -2.178537
H     -8.007667   -3.765799    0.815509
H     -7.946986   -2.033548    1.215674
H     -6.526306   -3.047386    1.410667
H     -7.894195   -2.672878   -2.668777
H    -13.243644   -1.947785   -1.345201
H    -13.568273   -1.929237    0.377604
H    -12.696942    0.354030    0.597155
H    -12.116286    1.605395   -1.526795
H    -12.360216    0.152082   -2.454437
H    -10.453110    0.684304    0.880537
H    -10.035055    1.991246   -0.225158
H     -8.882850    0.682511    0.075721
H     -8.686593    0.436032   -2.409495
H     -9.942279    1.625272   -2.738305
H    -10.090334   -0.006795   -3.403355
H    -16.785658    1.159782   -0.071240
H    -16.298631    1.539759   -1.754954
H    -16.397351    2.833225   -0.553597
H    -11.616260   -3.931443   -1.258077
H    -10.506744   -4.026523    0.134836
H    -12.236041   -4.035109    0.405142
H    -11.689326   -2.253893    1.841697
H      4.861285    0.225705    0.617887
H      6.159142    1.301925   -1.937381
H      7.070405    0.927588    0.990602
H      8.134252    1.468275   -2.623172
H      9.626418    0.653284   -2.206421
H      9.491750    2.420065   -2.043936
H      9.245867    1.268021    1.584895
H     11.279973    1.606885   -0.661341
H     13.903150    3.469260    3.282226
H     14.537798    3.811078    1.686766
H     15.206292    1.598645    1.274366
H     13.509580    0.731238    3.673035
H     14.550646   -0.330436    2.766996
H     12.580981   -0.637710   -0.324435
H     14.074148   -1.058575    0.520426
H     13.881584    0.544517   -0.215108
H     11.397366   -0.482679    3.196496
H     11.049029   -1.096852    1.577963
H     12.438407   -1.731134    2.473664
H     15.466943    1.984030    4.069845
H     10.908836    4.164796    0.991975
H     12.174054    5.046826    1.845720
H     12.463612    4.472895    0.198837
