37

C     -4.859108    0.342193   -0.781743
C     -3.426594    0.047622   -0.419760
C     -3.077323   -1.145229    0.239485
C     -1.739772   -1.439185    0.545260
C     -0.719424   -0.532594    0.203041
C     -1.049363    0.649407   -0.457185
C     -2.394539    0.929835   -0.772371
O     -2.754296    2.074922   -1.439471
C      0.016175    1.596942   -0.829723
O     -0.276837    2.636185   -1.415405
C      1.422012    1.302763   -0.503813
C      1.774358    0.123349    0.159955
C      0.694529   -0.832310    0.530207
O      0.920596   -1.888963    1.111545
C      3.133966   -0.122773    0.455625
C      4.099111    0.820710    0.078069
C      3.725456    1.986084   -0.581507
C      2.396643    2.238692   -0.877426
O      4.710219    2.863309   -0.923296
O      3.442977   -1.286728    1.105274
C      4.804917   -1.559437    1.407566
O     -1.466701   -2.636878    1.160789
C     -4.125429   -2.118024    0.588917
O     -4.780374   -2.780634   -0.191436
O     -4.344782   -2.118369    1.914915
H     -5.028945    1.408210   -0.962588
H     -5.535920    0.063237    0.032578
H     -5.135991   -0.209393   -1.685685
H     -1.947940    2.607491   -1.624842
H      5.155480    0.677561    0.283349
H      2.108176    3.151532   -1.392930
H      4.321658    3.623319   -1.389358
H      4.846577   -2.526405    1.918194
H      5.216286   -0.806374    2.087520
H      5.403142   -1.639585    0.493981
H     -0.497358   -2.696375    1.330414
H     -5.031581   -2.804107    2.043705
