34
 xtb: 6.6.1 (8d0f1dd)
C      4.869900    3.027700    0.725000
O      3.521200    2.585700    0.749200
C      3.206900    1.428100    0.148300
C      4.100800    0.600700   -0.516400
C      3.684800   -0.592500   -1.114900
O      4.632700   -1.318900   -1.731100
C      2.352000   -1.004700   -1.071600
C      1.470300   -0.178500   -0.410700
C      1.859900    1.022100    0.198900
C      0.672300    1.600600    0.788100
C     -0.391200    0.628500    0.456700
O      0.139900   -0.417500   -0.266300
C     -1.683000    0.761200    0.825600
C     -2.801400   -0.103700    0.577200
C     -4.052700    0.237200    1.104300
C     -5.152800   -0.566200    0.894900
C     -5.040100   -1.734000    0.150000
O     -6.123300   -2.514800   -0.050600
C     -3.787800   -2.086600   -0.388200
O     -3.742300   -3.244000   -1.111900
C     -2.690100   -1.282300   -0.174600
O      0.518100    2.643100    1.424300
H      5.207700    3.192300   -0.300300
H      4.868100    3.968700    1.269500
H      5.523800    2.310200    1.225200
H      5.146300    0.845300   -0.595600
H      4.267500   -2.131200   -2.117900
H      2.020700   -1.921800   -1.528000
H     -1.878200    1.660300    1.396600
H     -4.153400    1.140700    1.684400
H     -6.118500   -0.310700    1.299600
H     -5.869500   -3.284000   -0.589700
H     -2.845800   -3.405600   -1.438400
H     -1.732900   -1.555200   -0.588000
