34

C      4.795762    3.153057    0.444997
O      3.440020    2.726701    0.478743
C      3.176935    1.442490    0.112335
C      4.122276    0.500068   -0.309742
C      3.730940   -0.804573   -0.664287
O      4.716857   -1.661712   -1.062070
C      2.401405   -1.214041   -0.615420
C      1.480423   -0.276183   -0.200247
C      1.858474    1.020330    0.156651
C      0.633827    1.723418    0.544518
C     -0.420151    0.687475    0.360605
O      0.128073   -0.504244   -0.092470
C     -1.713667    0.909198    0.630634
C     -2.787437   -0.080031    0.483879
C     -3.728206   -0.212675    1.518627
C     -4.781809   -1.124197    1.411898
C     -4.897827   -1.891007    0.263660
O     -5.927445   -2.780897    0.156953
C     -3.983102   -1.757096   -0.776976
O     -4.165388   -2.536920   -1.886488
C     -2.929465   -0.853332   -0.678547
O      0.487341    2.864899    0.923190
H      5.197090    3.110354   -0.572887
H      4.826633    4.196861    0.771905
H      5.410573    2.568392    1.137240
H      5.178725    0.742805   -0.375239
H      4.327665   -2.530954   -1.256852
H      2.088905   -2.215180   -0.884660
H     -2.015331    1.881718    1.016540
H     -3.643558    0.388283    2.422008
H     -5.503874   -1.231412    2.215510
H     -5.807247   -3.189885   -0.723069
H     -3.471956   -2.312795   -2.530620
H     -2.225461   -0.738915   -1.496585
