34
 xtb: 6.6.1 (8d0f1dd)
O      0.093800   -2.496200   -0.589100
C      0.921300   -1.619400   -0.434000
N      2.228800   -1.891300   -0.761800
C      3.340100   -1.117400   -0.553100
O      4.441800   -1.445000   -0.949800
C      0.648400   -0.240600    0.071800
C      1.794100    0.532900    0.437300
C      3.056700    0.132500    0.176300
O      4.128400    0.911600    0.504500
C      5.169000    0.355500    1.190700
C      6.346500    1.260800    1.186100
O      5.069300   -0.714300    1.736800
C     -0.648400    0.240600    0.200300
C     -1.794100   -0.532900   -0.165300
C     -3.056700   -0.132400    0.095800
C     -3.340100    1.117400    0.825200
N     -2.228800    1.891300    1.033900
C     -0.921300    1.619400    0.706100
O     -0.093800    2.496200    0.861200
O     -4.441800    1.445000    1.222000
O     -4.128400   -0.911600   -0.232400
C     -5.169000   -0.355500   -0.918500
C     -6.346500   -1.260800   -0.914000
O     -5.069300    0.714300   -1.464800
H      2.387800   -2.808100   -1.178800
H      1.647100    1.484800    0.925100
H      6.019300    2.295700    1.196800
H      6.899300    1.084900    0.264200
H      6.988400    1.035200    2.031300
H     -1.647100   -1.484800   -0.653100
H     -2.387800    2.808100    1.450900
H     -6.988400   -1.035300   -1.759300
H     -6.899400   -1.084900    0.007900
H     -6.019200   -2.295700   -0.924600
