44
 xtb: 6.6.1 (8d0f1dd)
C      0.735200   -1.553900    1.750600
C      0.560900   -0.892400    0.599200
C     -0.721400   -0.493800   -0.004700
C     -0.490600    0.351800   -1.030200
C     -1.481000    0.960100   -1.959300
N     -2.698900    1.414600   -1.302700
C     -3.554500    0.596300   -0.620700
C     -3.183200   -0.474600    0.214300
C     -4.245000   -1.097800    0.884100
N     -5.512000   -0.738800    0.769900
C     -5.763400    0.289400   -0.052800
N     -7.058300    0.639100   -0.228700
N     -4.843000    0.951300   -0.740600
O     -3.962900   -2.121200    1.721300
N     -1.906100   -0.951500    0.478000
C      0.987800    0.581100   -1.149400
N      1.538200   -0.419600   -0.257200
C      2.910300   -0.310200    0.034800
C      3.544600    0.932900   -0.106000
N      2.860800    2.007700   -0.583000
C      1.421300    1.978700   -0.656200
N      4.848200    1.099800    0.146700
C      5.522300    0.014700    0.529000
N      5.037800   -1.223800    0.610000
C      3.738900   -1.400200    0.332700
N      3.302600   -2.689200    0.279200
N      6.816500    0.193400    0.901300
H     -0.102300   -1.903400    2.325100
H      1.708200   -1.715900    2.176300
H     -1.032600    1.830800   -2.440800
H     -1.731600    0.229800   -2.745000
H     -3.232700    2.068300   -1.862300
H     -7.721200    0.282600    0.436300
H     -7.233000    1.523000   -0.672800
H     -4.791900   -2.440100    2.114800
H     -1.871800   -1.648100    1.207400
H      1.373900    0.429300   -2.164900
H      3.328900    2.896300   -0.514300
H      1.086600    2.751000   -1.349500
H      0.956000    2.155000    0.324900
H      2.311800   -2.850100    0.351900
H      3.917100   -3.369400    0.694000
H      7.383200   -0.635300    0.946000
H      7.246000    1.055000    0.613300
