46

C      5.452691   -1.470300    0.652882
C      4.065429   -0.993624    0.323585
O      3.085190   -1.733447    0.349431
N      3.983217    0.349786    0.036891
C      2.718829    0.956054   -0.333336
C      1.769843    1.088585    0.862085
C      0.322441    1.214899    0.425055
C     -0.410485    0.046318    0.101634
C     -1.776396    0.125784   -0.279286
C     -2.531871   -1.040307   -0.585468
C     -3.868988   -0.875185   -0.962745
C     -4.396691    0.398806   -1.022980
N     -3.698450    1.512521   -0.736645
C     -2.405822    1.381022   -0.366889
C     -1.667551    2.530922   -0.062647
C     -0.312000    2.469572    0.310899
S      0.620939    3.994200    0.500151
C     -0.704707    5.073498    1.076561
C     -1.938007    4.992015    0.213368
O     -2.621818    5.987541   -0.029049
N     -2.355825    3.758919   -0.190412
C     -1.876247   -2.375305   -0.496777
C     -0.508465   -2.430525   -0.134110
N      0.180010   -1.235676    0.156289
C      0.160502   -3.657765   -0.031967
C     -0.517492   -4.841955   -0.297202
C     -1.859500   -4.816017   -0.658854
C     -2.532282   -3.592608   -0.756624
Br     0.387022   -6.496129   -0.163140
H      5.619419   -1.372678    1.728829
H      5.554709   -2.519049    0.360623
H      6.205983   -0.886266    0.116716
H      4.818162    0.922284    0.044132
H      2.282787    0.340939   -1.129215
H      2.936469    1.939487   -0.763441
H      1.854308    0.234763    1.545868
H      2.085356    1.926872    1.493242
H     -4.512338   -1.708817   -1.214244
H     -5.431090    0.561539   -1.313700
H     -0.978623    4.806687    2.102441
H     -0.337118    6.104020    1.074064
H     -3.278267    3.706097   -0.617438
H      1.182143   -1.335252    0.323074
H      1.209164   -3.680053    0.253716
H     -2.394857   -5.739105   -0.866097
H     -3.579721   -3.623066   -1.039268
