29
 xtb: 6.6.1 (8d0f1dd)
C      2.390700    0.071500    1.690300
C      3.762400    0.047700    1.821600
C      4.574900    0.068100    0.689600
C      3.985900    0.109300   -0.569100
C      2.610200    0.130000   -0.694000
C      1.791800    0.115800    0.431200
C      0.327900    0.137500    0.299300
C     -0.425100    0.888500    1.135100
O     -1.758700    0.973600    1.126100
C     -2.445300    0.249900    0.210300
C     -1.791400   -0.567900   -0.719200
C     -0.334000   -0.669800   -0.730400
O      0.269800   -1.386700   -1.533100
C     -2.573800   -1.287700   -1.634600
C     -3.939200   -1.196700   -1.623300
C     -4.584900   -0.372300   -0.685700
C     -3.833900    0.350000    0.227600
O     -5.926300   -0.323900   -0.719500
O      5.920300    0.043800    0.867900
H      1.773300    0.032800    2.574300
H      4.229700    0.006300    2.792500
H      4.601700    0.124500   -1.456300
H      2.166200    0.158600   -1.676700
H      0.006300    1.518400    1.899800
H     -2.057600   -1.915100   -2.344900
H     -4.546300   -1.747700   -2.322500
H     -4.294500    0.993600    0.960300
H     -6.281700    0.262700   -0.032200
H      6.381900    0.055500    0.015400
