38
 xtb: 6.6.1 (8d0f1dd)
O     -0.950700   -0.119300   -1.955800
C     -0.705600    0.086100   -0.766200
C      0.665300    0.024200   -0.255400
O      0.944500    0.388000    1.043700
C      1.666300   -0.401600   -1.077400
C      3.063900   -0.568300   -0.844600
C      3.695300   -0.255900    0.373100
C      5.048700   -0.443700    0.531900
O      5.720800   -0.157900    1.681700
C      5.825800   -0.959900   -0.528500
O      7.144800   -1.153100   -0.382400
C      5.204700   -1.268000   -1.736200
C      3.852100   -1.074500   -1.892800
C     -1.745300    0.439800    0.200600
C     -3.147400    0.389800   -0.236200
C     -3.977700    1.495500   -0.099000
C     -5.289100    1.456400   -0.548000
O     -6.130500    2.519900   -0.439900
C     -5.772500    0.292900   -1.140200
C     -4.960300   -0.816500   -1.257500
C     -3.646600   -0.788800   -0.804700
O     -2.844500   -1.886900   -0.838000
C     -1.389100    0.826700    1.455500
O     -2.274100    1.214400    2.383800
C      0.010800    0.804600    1.890000
O      0.326700    1.135400    3.026500
H      1.312000   -0.655500   -2.069200
H      3.114000    0.137000    1.190600
H      5.121300    0.190900    2.356700
H      7.420400   -0.888400    0.513700
H      5.813000   -1.658900   -2.535100
H      3.383000   -1.316700   -2.832500
H     -3.579200    2.392300    0.350700
H     -5.688200    3.259600    0.002400
H     -6.790000    0.274300   -1.495000
H     -5.352100   -1.716800   -1.706100
H     -3.292800   -2.612400   -1.299100
H     -1.797600    1.415300    3.215500
