38

O     -0.880916    0.442259   -2.020091
C     -0.658042    0.268880   -0.826089
C      0.714399    0.024469   -0.302943
O      0.960851   -0.003446    1.081331
C      1.704635   -0.174312   -1.191985
C      3.113301   -0.447715   -0.869073
C      3.821910    0.294918    0.088020
C      5.161892    0.004961    0.328850
O      5.894113    0.689980    1.259894
C      5.805795   -1.002226   -0.383835
O      7.120865   -1.276191   -0.141645
C      5.127683   -1.733579   -1.345166
C      3.781311   -1.451920   -1.590804
C     -1.735721    0.324374    0.193768
C     -3.141694    0.386034   -0.247890
C     -3.867642    1.582141   -0.151596
C     -5.191756    1.619145   -0.582432
O     -5.932665    2.761646   -0.505351
C     -5.807079    0.487884   -1.108047
C     -5.094859   -0.707149   -1.206423
C     -3.769098   -0.753187   -0.775669
O     -3.063294   -1.924478   -0.855329
C     -1.426765    0.275835    1.498020
O     -2.411575    0.345296    2.483485
C     -0.034949    0.149590    1.982531
O      0.168195    0.178937    3.194862
H      1.480123   -0.171947   -2.258839
H      3.331091    1.095630    0.631501
H      5.304781    1.324364    1.703254
H      7.377549   -0.643662    0.558696
H      5.639885   -2.514209   -1.899192
H      3.256042   -2.030249   -2.348548
H     -3.395422    2.469732    0.257236
H     -5.382638    3.466225   -0.125381
H     -6.840921    0.538398   -1.438720
H     -5.588290   -1.583729   -1.613729
H     -3.600781   -2.575593   -1.336634
H     -1.940313    0.262896    3.340615
