62
 xtb: 6.6.1 (8d0f1dd)
C     -7.144500   -2.004500    0.432500
C     -6.112300   -0.894700    0.571100
C     -4.798100   -1.234900   -0.141600
C     -3.873400   -0.065900   -0.016900
C     -2.483000   -0.249100   -0.019300
C     -1.640000    0.852800    0.171000
C     -2.156800    2.138500    0.393400
C     -3.548500    2.317500    0.396400
O     -4.095000    3.507900    0.630000
C     -4.394600    1.207400    0.158100
C     -5.884600    1.445800    0.120500
O     -6.663200    0.271800   -0.012200
C     -6.268500    2.346200   -1.058900
C     -1.234200    3.254200    0.617100
C      0.173400    2.980400    0.583000
C      0.663900    1.724900    0.360100
C     -0.239400    0.636000    0.154200
C      0.239000   -0.640000   -0.054800
C     -0.664600   -1.733500   -0.233700
O     -1.996500   -1.506100   -0.207200
C     -0.174400   -2.994700   -0.422400
C      1.233200   -3.269400   -0.450800
C      2.156400   -2.144800   -0.280300
C      1.639600   -0.855200   -0.081100
C      2.482600    0.245500    0.116100
O      1.995800    1.496800    0.338200
C      3.873200    0.066600    0.088400
C      4.795400    1.209200    0.373300
C      6.095500    0.650700    0.963600
O      6.663300   -0.262700    0.042800
C      5.887000   -1.413600   -0.231100
C      4.395400   -1.195600   -0.151800
C      3.548400   -2.319600   -0.308100
O      4.094000   -3.522700   -0.466600
C      6.302100   -1.883100   -1.629800
C      7.125400    1.742000    1.217800
O      1.667900   -4.432000   -0.614600
O     -1.669400    4.408300    0.832100
H     -7.368000   -2.165100   -0.618000
H     -6.764000   -2.922800    0.867800
H     -8.060700   -1.718000    0.939800
H     -5.901900   -0.704700    1.637500
H     -4.336000   -2.123400    0.286900
H     -5.012800   -1.432800   -1.194200
H     -3.354700    4.163800    0.775100
H     -6.158900    1.956700    1.061500
H     -5.912700    1.905700   -1.986000
H     -5.842400    3.334900   -0.933000
H     -7.351000    2.417100   -1.096500
H      0.842600    3.809900    0.743900
H     -0.844000   -3.829000   -0.554200
H      4.320300    1.909600    1.059100
H      5.031800    1.740200   -0.551600
H      5.863300    0.123000    1.904500
H      6.142000   -2.203200    0.499000
H      3.353300   -4.187700   -0.559000
H      5.880000   -2.858700   -1.841100
H      5.963900   -1.165300   -2.371800
H      7.385700   -1.938900   -1.663800
H      7.370400    2.236800    0.282700
H      6.731500    2.468400    1.921200
H      8.031900    1.303000    1.623300
