63

C      7.542938    4.134947    0.221289
C      7.061706    3.635184   -0.985009
C      6.096636    2.623549   -0.988263
C      5.592054    2.097004    0.212410
C      6.093669    2.612515    1.417583
C      7.060621    3.622236    1.422440
C      4.594232    1.021266    0.207481
C      3.618432    0.768993   -0.667270
C      2.873631   -0.386798   -0.285203
C      1.883674   -1.002678   -0.951470
C      1.178609   -2.212171   -0.505072
C     -0.156938   -2.094585   -0.388750
C     -1.156718   -3.089864    0.033242
C     -1.016687   -4.531707   -0.272691
C     -2.259768   -5.367059   -0.336783
C     -3.474746   -4.814314    0.304008
C     -3.460185   -3.560146    0.755507
C     -2.333741   -2.646830    0.573339
C     -2.529057   -1.248711    0.969377
C     -3.167133   -0.324530    0.235857
C     -3.415151    1.028796    0.591711
C     -4.017084    1.677327   -0.402849
C     -4.180817    0.640739   -1.446133
O     -4.679547    0.828129   -2.545521
O     -3.681957   -0.568688   -1.026330
C     -4.454469    3.070117   -0.471091
C     -3.635746    4.106951    0.005440
C     -4.066524    5.434786   -0.039839
C     -5.314026    5.744970   -0.576981
C     -6.126503    4.730369   -1.076619
C     -5.698663    3.401515   -1.025347
O     -3.087741    1.479744    1.837705
O     -4.585046   -5.625630    0.435978
O     -2.299276   -6.502391   -0.815422
C      0.147401   -5.213494   -0.382898
O      0.216688   -6.590022   -0.625513
C      1.484344   -4.689511   -0.155927
C      1.912342   -3.425063   -0.196773
O      2.439081   -5.676584    0.079137
O      3.358970   -0.846239    0.930717
C      4.420237   -0.029899    1.234457
O      5.114675   -0.171015    2.229854
O      3.313645    1.506655   -1.779320
H      8.298772    4.915986    0.228516
H      7.438001    4.025219   -1.927717
H      5.750675    2.248756   -1.950049
H      5.742202    2.236047    2.377994
H      7.441972    3.999807    2.368896
H      1.546947   -0.628447   -1.915058
H     -0.584712   -1.132804   -0.667630
H     -4.353570   -3.168269    1.237999
H     -2.125883   -0.985739    1.946933
H     -2.642872    3.899867    0.399520
H     -3.424774    6.230299    0.333345
H     -5.649051    6.778138   -0.617332
H     -7.095006    4.974114   -1.508549
H     -6.351617    2.629955   -1.431824
H     -3.525748    2.338219    1.980579
H     -4.332681   -6.478665    0.024019
H     -0.687177   -6.923037   -0.821623
H      2.979324   -3.285324   -0.027470
H      1.960165   -6.524993   -0.036013
H      2.408973    1.303006   -2.065864
