34

C     -3.361584    0.996230    1.034640
N     -2.574705    1.098414   -0.172063
C     -2.585666    2.207488   -0.977079
N     -1.729687    2.101870   -1.964133
C     -1.145847    0.875497   -1.797166
C     -1.663118    0.208153   -0.699643
C     -1.408748   -1.067106   -0.146177
C     -0.207285   -1.654810   -0.013625
C     -0.455709   -3.025027    0.505250
O      0.377453   -3.876133    0.758945
N     -1.788365   -3.169678    0.649085
C     -2.433924   -2.049689    0.273924
O     -3.639465   -1.880901    0.287650
C      1.099381   -1.167304   -0.291208
C      2.020353   -1.831202   -1.073598
N      3.160468   -1.074638   -1.118815
C      3.002909    0.069451   -0.370823
C      3.901974    1.116160   -0.132775
C      3.475700    2.164714    0.686180
C      2.202362    2.162005    1.247959
C      1.316495    1.106414    1.002382
C      1.714861    0.038127    0.169882
H     -3.504855    1.997793    1.450636
H     -4.330523    0.562258    0.779000
H     -2.834041    0.385685    1.770523
H     -3.227611    3.059545   -0.792673
H     -0.384831    0.527363   -2.484904
H     -2.235767   -4.007668    0.979804
H      1.970486   -2.778341   -1.595658
H      4.004615   -1.320860   -1.617256
H      4.896854    1.120211   -0.566126
H      4.149568    2.994528    0.886850
H      1.890090    2.988554    1.881312
H      0.328161    1.122897    1.449701
