34
 xtb: 6.6.1 (8d0f1dd)
C     -3.409800    0.958800    1.209700
N     -2.596000    1.177600    0.044600
C     -2.537700    2.313800   -0.676500
N     -1.648800    2.258100   -1.641100
C     -1.081700    1.038600   -1.533200
C     -1.654500    0.332200   -0.489000
C     -1.401800   -1.026200   -0.088900
C     -0.200000   -1.688100   -0.085100
C     -0.477600   -3.127300    0.170500
O      0.300100   -4.054900    0.259100
N     -1.839600   -3.232700    0.324000
C     -2.468500   -2.011000    0.147800
O     -3.676800   -1.867300    0.154100
C      1.137000   -1.221000   -0.240200
C      2.187200   -1.997500   -0.710600
N      3.319000   -1.271300   -0.761100
C      3.068800   -0.004100   -0.299000
C      3.934300    1.067600   -0.136500
C      3.415300    2.230100    0.396900
C      2.076400    2.311100    0.779500
C      1.213500    1.246000    0.620000
C      1.698800    0.074000    0.046100
H     -3.970900    1.866100    1.418700
H     -4.100800    0.132400    1.041000
H     -2.777300    0.716400    2.065200
H     -3.155900    3.165500   -0.476100
H     -0.318600    0.712900   -2.210100
H     -2.330400   -4.099400    0.491900
H      2.153000   -3.021700   -1.026100
H      4.213200   -1.606100   -1.084000
H      4.975100    0.991500   -0.407900
H      4.056000    3.086900    0.535800
H      1.709600    3.228500    1.213600
H      0.189800    1.320400    0.946800
