27

O     -0.456991    2.375419    0.444560
C     -0.340237    1.177341    0.191562
C      0.968212    0.515819    0.366579
C      1.092426   -0.845305    0.077019
C      2.324791   -1.490756    0.236580
C      3.426337   -0.769771    0.685284
O      4.603649   -1.452519    0.822127
C      3.319146    0.592217    0.979355
Cl     4.717968    1.444853    1.534316
C      2.087085    1.238762    0.820127
O      2.012116    2.577747    1.116926
C     -0.069951   -1.621686   -0.400130
C     -1.371516   -0.947430   -0.570403
C     -2.474279   -1.685417   -1.023414
C     -3.711603   -1.062855   -1.189622
C     -3.850052    0.294475   -0.904562
C     -2.753144    1.026601   -0.454414
O     -2.976811    2.352288   -0.198372
C     -1.506023    0.410379   -0.284232
O      0.045561   -2.814536   -0.652201
H      2.431383   -2.551202    0.013470
H      5.277013   -0.821052    1.141405
H      1.095760    2.896266    0.960212
H     -2.373599   -2.746501   -1.248168
H     -4.567463   -1.635045   -1.541072
H     -4.812912    0.783985   -1.032712
H     -2.136866    2.757922    0.109782
