50

C      7.176025   -0.877135   -0.084468
C      5.683077   -1.040725   -0.099295
C      4.871560   -0.113319   -0.772033
C      3.467795   -0.225305   -0.768988
C      2.617838    0.717702   -1.526781
O      3.311814    1.537857   -2.388147
C      2.589473    2.513081   -3.128566
C      1.284900    0.709492   -1.334532
C      0.608527   -0.170862   -0.381405
C     -0.645279    0.025723    0.116207
C     -1.300009   -0.848838    1.090540
C     -2.605441   -0.785839    1.409057
C     -3.468106    0.216822    0.751252
C     -4.867138    0.200302    0.922719
C     -5.691689    1.167226    0.326664
C     -7.182911    1.129900    0.507778
C     -5.107193    2.174478   -0.446188
C     -3.724815    2.209769   -0.617599
O     -3.239603    3.245363   -1.373404
C     -2.903110    1.228736   -0.036868
C     -1.435861    1.263511   -0.251993
O     -0.937754    2.297261   -0.702096
O     -3.257683   -1.584578    2.323699
C     -2.525232   -2.630375    2.954199
C      2.885260   -1.282030   -0.057206
C      3.693804   -2.218375    0.606038
O      3.188485   -3.289952    1.294999
C      5.080664   -2.092217    0.596152
C      1.409012   -1.396367    0.002861
O      0.915527   -2.466601    0.349794
H      7.675283   -1.850529   -0.036890
H      7.523971   -0.380895   -0.995122
H      7.479879   -0.280282    0.781221
H      5.346784    0.706974   -1.308480
H      3.308676    3.087197   -3.720191
H      2.067995    3.209845   -2.464928
H      1.884591    2.037964   -3.820502
H      0.665053    1.382332   -1.914226
H     -0.680126   -1.575815    1.597819
H     -5.326039   -0.576361    1.535035
H     -7.675548    0.970067   -0.459923
H     -7.486395    0.317112    1.176405
H     -7.536606    2.072122    0.944755
H     -5.723836    2.939717   -0.913578
H     -2.257389    3.218417   -1.325316
H     -3.207695   -3.162212    3.623384
H     -1.709004   -2.226132    3.560246
H     -2.150734   -3.345071    2.214425
H      2.222532   -3.338898    1.111824
H      5.686673   -2.820261    1.131652
