50
 xtb: 6.6.1 (8d0f1dd)
C      7.203800   -1.030000   -0.433200
C      5.740700   -1.001800   -0.134000
C      4.885900   -0.221100   -0.908200
C      3.523000   -0.172100   -0.645100
C      2.637400    0.624600   -1.460300
O      3.236800    1.284600   -2.468100
C      2.462300    2.105500   -3.325200
C      1.294300    0.653400   -1.203200
C      0.688000   -0.078400   -0.162600
C     -0.707200    0.007800    0.075100
C     -1.403200   -1.043500    0.704400
C     -2.743100   -1.002800    0.976200
C     -3.527700    0.156600    0.624700
C     -4.893100    0.197800    0.875600
C     -5.655800    1.309100    0.525500
C     -7.124800    1.322900    0.795000
C     -5.027000    2.384200   -0.077000
C     -3.655800    2.376200   -0.337400
O     -3.133000    3.463600   -0.914500
C     -2.876100    1.246300    0.006900
C     -1.455700    1.220100   -0.284200
O     -0.892600    2.230000   -0.767300
O     -3.436900   -2.003700    1.548300
C     -2.759100   -3.178900    1.958200
C      2.968900   -0.914900    0.420200
C      3.844900   -1.699100    1.208200
O      3.421900   -2.430300    2.245000
C      5.208800   -1.731500    0.914100
C      1.546900   -0.897600    0.703400
O      1.095100   -1.514700    1.696200
H      7.709600   -1.779500    0.167300
H      7.368100   -1.243300   -1.486700
H      7.641600   -0.056400   -0.220300
H      5.276300    0.358600   -1.729100
H      3.179700    2.571000   -3.996700
H      1.927400    2.871800   -2.759700
H      1.749500    1.508900   -3.898900
H      0.647500    1.235400   -1.836100
H     -0.841400   -1.927800    0.948800
H     -5.358500   -0.651500    1.349400
H     -7.622200    0.595700    0.155700
H     -7.321000    1.044600    1.827600
H     -7.547000    2.304100    0.601800
H     -5.578400    3.268400   -0.356100
H     -2.154700    3.317800   -1.014800
H     -3.513800   -3.782700    2.456400
H     -1.949200   -2.944400    2.652600
H     -2.359000   -3.720100    1.098000
H      2.442000   -2.289800    2.340400
H      5.836200   -2.343100    1.543500
