75
 xtb: 6.6.1 (8d0f1dd)
C     -6.555200    0.291300   -1.111800
C     -5.847800   -0.332400    0.083800
O     -4.455700   -0.260000   -0.160500
C     -3.677000   -0.857300    0.854200
C     -3.893600   -0.150100    2.200300
C     -5.377500   -0.177000    2.558100
O     -5.577400    0.564400    3.739900
C     -6.205600    0.395700    1.394500
O     -7.582500    0.338000    1.684100
C     -2.228700   -0.796500    0.456600
C     -1.775900    0.140500   -0.405400
C     -0.404600    0.211700   -0.806000
C      0.062500    1.118800   -1.744200
C      1.496800    1.223800   -1.990400
O      2.027900    2.023400   -2.739300
O      2.321800    0.356900   -1.348500
C      1.871000   -0.596200   -0.490500
C      0.514300   -0.685900   -0.172100
C      0.073200   -1.672600    0.733300
C     -1.340500   -1.778400    1.064200
O     -1.770100   -2.648800    1.843200
C      1.003400   -2.570000    1.290400
O      0.647600   -3.524300    2.134700
C      2.375700   -2.467400    0.942600
C      2.804200   -1.469700    0.074700
C      4.249900   -1.464700   -0.389400
O      4.354100   -2.334300   -1.500100
C      4.751900   -0.082400   -0.801500
O      5.176500    0.071900   -1.929900
C      4.827000    0.929900    0.285100
C      5.801400    0.431100    1.395700
C      5.774400    1.425500    2.558900
O      7.125800    0.402600    0.917200
C      5.333000   -0.951100    1.870200
C      5.200500   -1.983500    0.736600
O      6.483100   -2.205800    0.188200
C      4.635100   -3.248100    1.328100
C      3.324100   -3.434300    1.456500
C     -0.812600    1.965300   -2.541600
C     -0.511000    3.312200   -2.764400
C     -1.346600    4.107900   -3.517100
C     -2.500300    3.574400   -4.091900
O     -3.347800    4.306900   -4.837100
C     -2.795000    2.222500   -3.897800
C     -1.968400    1.434900   -3.132300
H     -6.152500    1.284900   -1.285600
H     -6.390300   -0.313800   -1.997400
H     -7.619000    0.366900   -0.910400
H     -6.140500   -1.393300    0.189700
H     -3.962600   -1.917700    0.968900
H     -3.568300    0.888300    2.123800
H     -3.317500   -0.644900    2.981200
H     -5.689200   -1.224100    2.728000
H     -6.516900    0.797600    3.801400
H     -5.974100    1.460900    1.287600
H     -7.870400   -0.586300    1.714800
H     -2.473800    0.862500   -0.797300
H     -0.337900   -3.485500    2.276800
H      4.618200   -1.786700   -2.266300
H      5.191800    1.871300   -0.126000
H      3.846300    1.071900    0.735200
H      4.772200    1.523900    2.961500
H      6.123500    2.392700    2.210000
H      6.447600    1.081100    3.338300
H      7.288800   -0.444600    0.470400
H      6.064000   -1.339000    2.581000
H      4.369900   -0.858100    2.369900
H      6.393500   -2.808800   -0.566000
H      5.359300   -3.962200    1.684300
H      2.915200   -4.308500    1.935900
H      0.373900    3.738400   -2.320500
H     -1.103300    5.150000   -3.660000
H     -3.045000    5.225200   -4.921400
H     -3.676000    1.814400   -4.365900
H     -2.188600    0.384600   -3.021800
