41

C      5.323900   -1.297972    0.338693
C      3.999000   -0.567213    0.574870
C      3.887649    0.645699   -0.358169
C      2.579137    1.406078   -0.136265
C      1.359659    0.515554   -0.109237
C      0.077335    1.070288   -0.273302
C     -1.074126    0.267104   -0.235801
C     -0.945172   -1.101212   -0.020869
C      0.322985   -1.663754    0.168008
C      1.477649   -0.863685    0.140535
C      2.821253   -1.533591    0.344149
C     -2.136729   -1.973074    0.016471
O     -2.015839   -3.180233    0.186316
C     -3.475383   -1.375649   -0.156836
C     -3.614453   -0.004211   -0.366884
C     -2.416231    0.853562   -0.415495
O     -2.533586    2.063401   -0.607133
C     -4.896165    0.538153   -0.530425
C     -6.023165   -0.280067   -0.483575
C     -5.880268   -1.650590   -0.273040
C     -4.608376   -2.200192   -0.109822
O     -5.125783    1.870710   -0.741975
O      0.008944    2.431755   -0.447866
O      2.649677    2.070516    1.128368
O      4.015432   -0.156298    1.947447
H      5.418751   -2.159036    1.010340
H      6.174328   -0.641000    0.554662
H      5.414724   -1.652029   -0.693411
H      4.726510    1.328449   -0.171735
H      3.946731    0.314183   -1.402893
H      2.492802    2.167246   -0.920696
H      0.415860   -2.736041    0.345136
H      3.010415   -2.135482   -0.554533
H      2.743123   -2.216462    1.200126
H     -7.012899    0.152516   -0.611457
H     -6.759599   -2.289951   -0.236177
H     -4.504218   -3.271937    0.054240
H     -4.261760    2.337764   -0.755236
H     -0.934052    2.684975   -0.574073
H      1.854788    2.638261    1.160840
H      3.497151    0.674271    2.016702
