55
 xtb: 6.6.1 (8d0f1dd)
C     -5.669700    0.268300    2.181000
C     -5.332000    1.458500    1.291300
C     -5.297200    1.089100   -0.204500
C     -4.245300    0.073400   -0.467200
N     -4.604600   -1.223300   -0.563800
C     -3.734800   -2.249800   -0.738900
C     -2.384900   -1.996100   -0.840400
C     -1.941800   -0.671500   -0.762000
C     -2.902700    0.360200   -0.569500
C     -2.192500    1.639900   -0.535400
O     -2.659100    2.754900   -0.400200
C     -0.737800    1.297600   -0.709200
C      0.152000    2.327500   -0.721300
C      1.579200    2.288000   -0.842300
O      2.247900    3.345900   -0.859200
C      2.263100    1.022800   -0.948400
C      1.857600   -0.269900   -1.038200
C      0.533600   -0.925000   -1.014200
C     -0.625600   -0.113400   -0.837800
O      0.485700   -2.159800   -1.133900
O      2.887400   -1.143900   -1.169600
C      4.098700   -0.403600   -1.369500
C      3.781600    1.024200   -0.878100
C      4.194900    1.276500    0.597700
C      5.525500    0.574100    0.900900
C      5.468800   -0.924900    0.539500
O      5.198400   -1.049000   -0.864500
C      4.525200   -1.752500    1.404900
O      5.807600    0.791900    2.260300
O      3.165800    0.871400    1.464400
O      4.417000    1.944900   -1.722300
C     -4.319000   -3.610200   -0.809400
H     -5.746300    0.593700    3.215200
H     -6.623300   -0.167600    1.894800
H     -4.894900   -0.492900    2.129100
H     -6.080300    2.239400    1.425700
H     -4.364700    1.876100    1.574500
H     -6.274800    0.714000   -0.506400
H     -5.064100    1.993600   -0.766800
H     -5.594400   -1.449900   -0.486400
H     -1.670100   -2.789200   -0.979700
H     -0.261400    3.324500   -0.612400
H      4.276300   -0.355300   -2.456800
H      4.348800    2.363400    0.699900
H      6.280300    1.043900    0.251800
H      6.480400   -1.340500    0.615300
H      4.605600   -2.797100    1.118200
H      4.801100   -1.636300    2.448600
H      3.494900   -1.436000    1.271200
H      6.714700    0.518100    2.455500
H      3.511300    0.953100    2.368900
H      3.939100    2.795200   -1.611800
H     -4.889400   -3.825200    0.092200
H     -4.994600   -3.687500   -1.659300
H     -3.537300   -4.353900   -0.917000
