32

C     -5.471764   -0.498601   -1.286594
C     -3.987933   -0.300890   -1.376420
C     -3.202164   -0.365913   -0.232866
C     -1.824877   -0.175881   -0.361894
C     -1.273006    0.070460   -1.608020
C     -2.123923    0.119570   -2.696861
N     -3.463316   -0.060850   -2.602142
C      0.169451    0.272996   -1.767784
O      0.650565    0.490728   -2.874997
C      1.046685    0.213185   -0.580760
C      0.503044   -0.034401    0.681344
C     -0.955666   -0.236727    0.825405
O     -1.438112   -0.454597    1.932466
C      1.348410   -0.088943    1.803591
C      2.734810    0.102761    1.670812
C      3.266196    0.349507    0.403859
C      2.428008    0.403743   -0.709916
O      3.040082    0.651074   -1.910334
O      3.469197    0.029829    2.825043
C      4.874054    0.219010    2.726137
O      0.857944   -0.329902    3.065792
H     -5.936187   -0.415744   -2.274469
H     -5.915577    0.261505   -0.636225
H     -5.697089   -1.491804   -0.885992
H     -3.651747   -0.560167    0.737193
H     -1.756373    0.308718   -3.702783
H      4.329046    0.504293    0.247201
H      2.355243    0.666463   -2.617270
H      5.112253    1.221225    2.354993
H      5.333557   -0.554449    2.102008
H      5.295417    0.128228    3.731936
H     -0.116228   -0.444425    3.017544
