75
 xtb: 6.6.1 (8d0f1dd)
C      2.553100    0.990000   -0.362300
C      3.385300   -0.167500   -0.503800
C      2.582500   -1.259500   -0.299100
C      2.959300   -2.651000   -0.293900
C      2.484300   -3.641700    0.529300
N      3.106100   -4.826500    0.256700
C      4.002800   -4.635500   -0.753500
C      3.944700   -3.271800   -1.132900
C      4.748800   -2.820100   -2.177200
C      5.596100   -3.713900   -2.794100
C      5.654800   -5.052900   -2.397700
C      4.858700   -5.532800   -1.380100
C      2.983600    2.358000   -0.451800
C      4.109400    2.826500   -1.086900
N      4.176300    4.183700   -0.991800
C      3.100000    4.634800   -0.279300
C      2.320000    3.512400    0.087000
C      1.182000    3.694300    0.867500
C      0.830400    4.975500    1.230800
C      1.592200    6.077900    0.837200
C      2.738400    5.925200    0.085900
N      1.296100    0.651800   -0.122100
C      1.248100   -0.724300   -0.086500
C      0.074600   -1.433500    0.047300
C     -1.185100   -0.833600    0.155100
C     -2.474900   -1.379400    0.369700
C     -2.819400   -2.778000    0.456400
C     -2.273400   -3.815200   -0.258700
N     -2.874400   -4.992800    0.077300
C     -3.826500   -4.751900    1.024700
C     -3.827800   -3.361400    1.294700
C     -4.693900   -2.856900    2.263100
C     -5.542400   -3.728200    2.909600
C     -5.542800   -5.095400    2.618900
C     -4.684300   -5.626300    1.680500
C     -3.349600   -0.296500    0.471200
C     -2.611900    0.877900    0.294200
C     -3.067000    2.238600    0.283800
C     -4.225200    2.709000    0.859700
N     -4.328900    4.052300    0.681100
C     -3.247200    4.494800   -0.026500
C     -2.420000    3.379200   -0.306600
C     -1.267600    3.566400   -1.068800
C     -0.955600    4.839200   -1.493400
C     -1.764800    5.933500   -1.181900
C     -2.923500    5.776800   -0.452300
N     -1.324300    0.526800    0.113900
H      4.446600   -0.155100   -0.671000
H      1.765600   -3.570000    1.322600
H      2.951000   -5.690800    0.747400
H      4.700100   -1.789700   -2.497400
H      6.229100   -3.379500   -3.603200
H      6.334000   -5.721500   -2.905500
H      4.897200   -6.569400   -1.081300
H      4.858800    2.274800   -1.621100
H      4.899900    4.760000   -1.387400
H      0.599200    2.842900    1.180400
H     -0.055600    5.136600    1.826800
H      1.278500    7.067300    1.135000
H      3.335800    6.776300   -0.204600
H      0.126900   -2.510200    0.065700
H     -1.514200   -3.782700   -1.015700
H     -2.667800   -5.888800   -0.330500
H     -4.689900   -1.805500    2.506100
H     -6.222400   -3.354300    3.661100
H     -6.224800   -5.745200    3.147100
H     -4.675900   -6.684000    1.464800
H     -4.411900   -0.352000    0.601900
H     -4.971000    2.162500    1.402200
H     -5.079800    4.629300    1.021000
H     -0.626100    2.740100   -1.331400
H     -0.059000    4.998500   -2.074300
H     -1.477300    6.915600   -1.526100
H     -3.559200    6.618300   -0.222800
H     -0.485100    1.098600    0.006000
