37
 xtb: 6.6.1 (8d0f1dd)
C     -1.592700    3.456200    1.674200
C     -2.323300    2.272800    1.101400
O     -3.539800    2.190800    1.052700
N     -1.483100    1.300700    0.641600
C     -1.783900    0.086100    0.055600
C     -3.051600   -0.387500   -0.171300
C     -3.360400   -1.650700   -0.778300
C     -2.269200   -2.443800   -1.159600
N     -2.152500   -3.692000   -1.759500
C     -0.876000   -3.948500   -1.884200
C     -0.043100   -2.883600   -1.373700
C     -0.994200   -1.938000   -0.918300
C     -0.652400   -0.724900   -0.336600
N      0.630900   -0.398300   -0.183700
C      1.550500   -1.274800   -0.605500
C      1.278300   -2.524800   -1.203600
C      2.979300   -0.900400   -0.429000
O      3.875400   -1.674600   -0.784300
C      3.238600    0.391500    0.167400
C      4.507600    0.798700    0.362100
O      4.945500    1.930600    0.885100
C      3.988700    2.892100    1.322600
N     -4.629500   -2.016400   -0.952900
H     -2.315000    4.187100    2.024700
H     -0.967200    3.139600    2.504500
H     -0.963700    3.908000    0.912000
H     -0.483900    1.455800    0.722400
H     -3.884700    0.230100    0.126500
H     -0.542900   -4.869500   -2.326800
H      2.116200   -3.138600   -1.499100
H      2.376900    0.977500    0.431500
H      5.324800    0.149100    0.068400
H      4.570200    3.725400    1.708200
H      3.362000    2.473000    2.110900
H      3.369300    3.219500    0.486600
H     -4.825300   -2.906600   -1.378700
H     -5.379900   -1.411900   -0.663700
