34

C     -5.091641   -0.663141   -1.929706
C     -3.913503   -0.388354   -1.041773
C     -2.608543   -0.493760   -1.539573
C     -1.508610   -0.206239   -0.717512
C     -1.704614    0.197614    0.600567
C     -3.009461    0.317213    1.093572
C     -4.104661    0.032077    0.279216
O     -3.294877    0.713747    2.372185
C     -0.540397    0.496644    1.452171
O     -0.709691    0.854173    2.617036
C      0.827339    0.369032    0.912835
C      1.023754   -0.033996   -0.407623
C     -0.143793   -0.332672   -1.262532
O      0.030122   -0.685756   -2.425205
C      2.331610   -0.152012   -0.911944
C      3.444841    0.131053   -0.101810
C      3.235758    0.533423    1.217810
C      1.938654    0.650601    1.717942
O      1.835821    1.051967    3.023771
O      4.674044   -0.014848   -0.688615
C      5.820544    0.263410    0.103302
O      2.573033   -0.545953   -2.207564
H     -5.390116    0.252721   -2.448912
H     -5.941814   -1.033477   -1.347265
H     -4.849267   -1.429549   -2.673372
H     -2.447836   -0.802336   -2.572496
H     -5.109401    0.139587    0.684090
H     -2.449190    0.881964    2.843199
H      4.060228    0.763932    1.885059
H      0.884063    1.099795    3.265372
H      5.833173    1.309758    0.425665
H      5.883138   -0.415973    0.959714
H      6.705258    0.096547   -0.518676
H      1.716034   -0.709898   -2.658929
