67

C      9.335810    1.665309    0.836980
C      7.820047    1.610299    0.940990
C      7.234885    0.533929    0.027064
C      5.708575    0.489432    0.127034
C      5.123551   -0.580603   -0.800879
C      3.611072   -0.638175   -0.743246
C      2.750054    0.366218   -1.231703
C      1.346646    0.263712   -1.028289
C      0.765054   -0.852838   -0.385820
C      1.642753   -1.888767    0.007062
C      3.032992   -1.763271   -0.136865
C      1.076185   -3.145003    0.628092
C     -0.260084   -3.511916   -0.017136
C     -1.213417   -2.339569    0.039309
C     -2.589995   -2.536072    0.222496
C     -3.476303   -1.445749    0.314105
C     -2.991580   -0.138408    0.234579
C     -1.599622    0.031572    0.025381
C     -0.695717   -1.037055   -0.121295
C     -3.905464    1.091842    0.360799
C     -5.391498    0.757977    0.561572
C     -5.861155   -0.561280    0.626441
C     -4.918522   -1.687541    0.507353
O     -5.343082   -2.842837    0.571138
C     -7.235692   -0.820233    0.808718
C     -8.154678    0.216096    0.930319
C     -7.697948    1.520715    0.869617
C     -6.344434    1.794594    0.688949
O     -8.548400    2.579447    0.982872
O     -7.760857   -2.084935    0.877751
C     -3.430332    1.925746    1.578629
C     -3.771410    1.934123   -0.934367
O     -3.022205   -3.837345    0.311656
O      0.504009    1.249633   -1.502123
C      3.234261    1.565840   -1.960764
O      2.656633    2.642056   -1.956870
O      4.315292    1.363957   -2.725618
H      9.650551    1.892888   -0.186599
H      9.784087    0.711100    1.131121
H      9.732605    2.444582    1.494714
H      7.406340    2.589984    0.675049
H      7.537464    1.410386    1.980998
H      7.528373    0.734900   -1.010600
H      7.650728   -0.444286    0.297152
H      5.413669    0.276747    1.162700
H      5.303671    1.478497   -0.114965
H      5.460908   -0.451310   -1.833640
H      5.537566   -1.553159   -0.502570
H      3.671722   -2.566495    0.230046
H      0.952676   -2.975115    1.705058
H      1.770224   -3.984290    0.501761
H     -0.119302   -3.796326   -1.067617
H     -0.662724   -4.382183    0.512808
H     -1.206776    1.044674   -0.012804
H     -9.205202   -0.015933    1.070354
H     -6.043741    2.839718    0.648223
H     -9.452436    2.240547    1.098655
H     -7.018753   -2.722988    0.782852
H     -2.384181    2.237770    1.489362
H     -4.011875    2.845495    1.706421
H     -3.521113    1.350311    2.508676
H     -4.102628    1.363181   -1.810773
H     -4.368070    2.851815   -0.898366
H     -2.739959    2.251279   -1.122598
H     -3.998531   -3.828609    0.420767
H      1.025911    2.049497   -1.727900
H      4.463374    2.216425   -3.184854
