61

C      2.786684   -2.763238   -0.962422
C      2.690666   -1.357068   -0.378412
C      4.033621   -0.887013    0.200695
C      3.867649    0.483296    0.845047
C      2.709458    0.476631    1.838430
C      1.427442   -0.101996    1.230289
O      1.685242   -1.386607    0.651736
O      0.896199    0.816878    0.269586
C     -0.546468    0.930474    0.233990
C     -0.899607    1.811216   -0.991359
O     -1.766527    1.535320   -1.830611
C     -0.185173    3.157811   -1.064034
C     -0.474080    3.934985    0.249999
C     -1.531766    3.204425    1.112955
C     -1.078422    1.768032    1.487541
C     -2.184651    1.083701    2.235756
C     -2.669521   -0.120963    1.913412
C     -2.197712   -0.896046    0.779757
C     -1.218817   -0.420319   -0.007092
C     -0.800983   -1.176449   -1.217517
O      0.029997   -0.727864   -2.001036
C     -1.413337   -2.489541   -1.484514
C     -2.395947   -3.013978   -0.647169
C     -2.856279   -2.218294    0.515885
O     -3.755821   -2.600799    1.253873
C     -2.930765   -4.278729   -0.953078
C     -2.498019   -4.993553   -2.077281
C     -1.522228   -4.456903   -2.909817
C     -0.981640   -3.207936   -2.615394
O     -3.882930   -4.853304   -0.157857
O     -0.058099    1.925632    2.492124
C     -0.921411    5.384527    0.020496
O      0.735819    3.976093    1.037239
O     -0.628485    3.888922   -2.211738
O      4.509125   -1.800415    1.192503
H      3.554009   -2.818687   -1.741948
H      3.013285   -3.501988   -0.187494
H      1.827813   -3.061377   -1.400217
H      2.378797   -0.669764   -1.171997
H      4.792962   -0.840102   -0.584311
H      3.678361    1.234400    0.070388
H      4.785680    0.771021    1.369785
H      2.544710    1.497547    2.194154
H      2.998362   -0.130983    2.703604
H      0.718011   -0.275738    2.043757
H      0.887346    2.971711   -1.200000
H     -1.681496    3.776915    2.040636
H     -2.497526    3.186739    0.588330
H     -2.580279    1.593066    3.112250
H     -3.457376   -0.556054    2.527018
H     -2.912677   -5.970038   -2.313678
H     -1.177995   -5.006252   -3.784748
H     -0.217787   -2.794825   -3.272768
H     -4.207266   -5.676490   -0.555641
H      0.523204    2.651030    2.184238
H     -0.165029    5.945601   -0.539305
H     -1.869472    5.432344   -0.524281
H     -1.047131    5.910334    0.975319
H      1.346978    4.601369    0.597632
H     -0.936350    3.224115   -2.862957
H      3.727650   -2.120821    1.680251
