33
 xtb: 6.6.1 (8d0f1dd)
C      1.070600    0.612900    0.401300
C      2.372700    0.065300    0.314700
C      3.486800    0.853800    0.562700
C      3.338800    2.192000    0.904400
O      4.386300    2.992700    1.156300
C      2.052800    2.744100    0.997400
C      0.951000    1.969700    0.746900
O      2.621000   -1.224900   -0.026000
C      1.539800   -2.035000   -0.466400
C      0.269300   -1.750500    0.338400
C     -0.025800   -0.266700    0.164500
C     -1.320500   -0.079200   -0.262000
C     -1.958100   -1.357600   -0.450500
C     -0.992000   -2.464900   -0.169400
C     -3.242300   -1.466000   -0.860300
C     -4.013700   -0.287000   -1.124200
O     -5.207800   -0.286100   -1.493000
C     -3.332400    1.006400   -0.972700
C     -2.042100    1.106500   -0.568800
O     -4.080700    2.090500   -1.273100
O      0.446600   -2.099200    1.698300
H      4.460900    0.398700    0.475800
H      5.229100    2.517200    1.077400
H      1.958300    3.780100    1.277200
H     -0.033400    2.388300    0.865200
H      1.873200   -3.064900   -0.326500
H      1.353800   -1.844900   -1.530500
H     -1.361400   -3.134900    0.606300
H     -0.795900   -3.051000   -1.066800
H     -3.722400   -2.421600   -1.005300
H     -1.585000    2.079100   -0.500500
H     -4.965700    1.754300   -1.528600
H      1.268100   -1.717300    2.037800
