27
 xtb: 6.6.1 (8d0f1dd)
C     -3.149500    2.227800   -0.858500
C     -1.896700    2.312200   -0.322400
C     -1.097400    1.151300   -0.237100
N      0.128800    1.210400    0.285800
C      0.838500    0.092700    0.355700
C      2.154900    0.090400    0.913600
C      2.897900   -1.057200    0.909600
C      2.387200   -2.276900    0.397300
C      1.118000   -2.319800   -0.119900
C      0.329200   -1.150900   -0.159700
N     -0.894400   -1.213600   -0.688800
C     -1.615500   -0.094600   -0.722900
C     -2.931200   -0.141200   -1.277800
C     -3.671700    1.011800   -1.335700
O     -3.421300   -1.309700   -1.730400
O      3.201800   -3.342800    0.463100
C      2.758000    1.310800    1.503200
O      3.959900    1.504500    1.526000
O      1.889200    2.149000    2.026700
H     -3.767100    3.109700   -0.923400
H     -1.489400    3.237300    0.049500
H      3.896500   -1.050300    1.319600
H      0.689500   -3.230800   -0.507100
H     -4.664100    0.971900   -1.754700
H     -2.746500   -2.001700   -1.605600
H      2.779900   -4.141100    0.104600
H      2.315400    2.950800    2.389300
