30
 xtb: 6.6.1 (8d0f1dd)
C      2.376700   -0.963100    0.582100
C      3.720300   -1.213700    0.737000
C      4.665000   -0.295700    0.274900
C      4.228900    0.872700   -0.348800
C      2.881600    1.123100   -0.496700
C      1.930500    0.213800   -0.029500
C      0.497600    0.459700   -0.168100
C     -0.059600    1.683100   -0.381700
C     -1.479900    1.855500   -0.493600
O     -2.012000    2.972200   -0.687700
C     -2.255300    0.638300   -0.358500
C     -3.667600    0.641900   -0.441200
C     -4.367700   -0.545700   -0.306100
C     -3.693200   -1.746300   -0.088100
C     -2.304500   -1.766100   -0.001400
C     -1.598200   -0.582200   -0.135500
O     -0.249200   -0.652900   -0.044500
O     -4.343700   -2.914200    0.044600
O     -4.344300    1.778900   -0.649500
O      5.969900   -0.584400    0.449600
H      1.653500   -1.674300    0.947400
H      4.068200   -2.115200    1.214900
H      4.947600    1.586000   -0.722900
H      2.567300    2.023200   -0.999000
H      0.549800    2.567000   -0.452400
H     -5.443400   -0.512400   -0.374600
H     -1.787500   -2.694800    0.165700
H     -5.303900   -2.795600   -0.035300
H     -3.685800    2.520100   -0.720000
H      6.539000    0.121000    0.103000
