22
 xtb: 6.6.1 (8d0f1dd)
C      0.910000   -1.496400   -0.312200
C      0.056100   -1.047100   -1.421100
N     -0.774700   -0.068600   -1.256900
C     -0.886300    0.755100   -0.167300
C      0.158500    1.183900    0.586800
C      1.508800    0.837100    0.308600
C      1.889500   -0.347600   -0.236500
C      3.240900   -0.565700   -0.747200
O      3.578900   -1.528400   -1.400000
C     -2.301800    1.379100   -0.075200
O     -2.622900    1.889300    1.005000
O     -2.958900    1.262100   -1.126300
C     -2.769400   -0.210400    2.574100
O     -1.933400   -0.735100    1.990600
O     -3.605900    0.254000    3.197800
H      0.340500   -1.560600    0.617100
H      1.427700   -2.425200   -0.537900
H      0.115100   -1.514500   -2.395900
H     -1.529100    0.160700   -1.931300
H     -0.057800    1.954800    1.312100
H      2.254900    1.593400    0.510100
H      3.959400    0.230000   -0.494200
