38
 xtb: 6.6.1 (8d0f1dd)
C     -4.015600   -2.540800   -0.052400
C     -4.568300   -1.408900    0.506600
C     -3.810600   -0.247400    0.482000
C     -2.497700   -0.180500   -0.059300
C     -1.969400   -1.355100   -0.602300
C     -2.739600   -2.507000   -0.605800
O     -0.728000   -1.482800   -1.211300
C      0.420000   -1.091800   -0.622000
N      1.326000   -2.079900   -0.355900
C      2.481500   -1.518300    0.113000
C      2.302900   -0.117200    0.140400
C      0.971500    0.149100   -0.346500
C      0.383900    1.434700   -0.565600
C     -0.909400    1.862500   -0.409100
C     -0.957700    3.300300   -0.752100
N      0.319600    3.652800   -1.131300
C      1.185200    2.578300   -1.055000
O      2.352200    2.631300   -1.387100
O     -1.898000    4.072100   -0.735600
C     -2.094300    1.196100    0.037700
C     -3.156200    1.863000    0.625900
N     -4.156600    1.004800    0.904300
C      3.327500    0.676600    0.646800
C      4.492600    0.074800    1.070100
C      4.663100   -1.314300    1.012300
C      3.648600   -2.131100    0.536700
O      5.814500   -1.909900    1.426900
H     -4.569100   -3.465400   -0.066200
H     -5.558800   -1.415800    0.930300
H     -2.319900   -3.394300   -1.051700
H      1.172000   -3.057400   -0.545200
H      0.586800    4.574600   -1.444300
H     -3.221400    2.906500    0.861000
H     -5.030300    1.248800    1.343100
H      3.225700    1.748300    0.697500
H      5.294000    0.687600    1.456100
H      3.784800   -3.199200    0.512900
H      6.448300   -1.244900    1.734600
