35

C     -2.716686    1.821559    1.357919
O     -2.353598    1.747076   -0.027385
C     -1.799110    0.532663   -0.346760
C     -0.429995    0.261427   -0.124772
C      0.073073   -0.990893   -0.489293
C      1.490705   -1.336423   -0.276398
C      2.399986   -0.351555    0.322498
C      3.751574   -0.654852    0.526544
O      4.323552   -1.853136    0.171017
C      4.594930    0.282294    1.123936
O      5.913598   -0.017078    1.320542
C      4.117344    1.521446    1.518427
C      2.772605    1.832466    1.306531
C      1.912673    0.896975    0.704729
C      0.494236    1.253614    0.484416
O      0.120018    2.372611    0.818640
O      1.930771   -2.440316   -0.587217
C     -0.760044   -1.945936   -1.081091
C     -2.093798   -1.644369   -1.334416
O     -2.831306   -2.630972   -1.925541
C     -2.638657   -0.398020   -1.001273
C     -4.087853   -0.051290   -1.252342
O     -4.636196   -0.860197   -2.297199
H     -1.985756    1.346829    2.021510
H     -3.697427    1.353242    1.507973
H     -2.791632    2.878190    1.630653
H      3.605197   -2.437434   -0.177937
H      6.029767   -0.905170    0.926242
H      4.785069    2.239176    1.983668
H      2.398885    2.807926    1.612903
H     -0.374900   -2.922180   -1.368556
H     -3.700915   -2.239744   -2.174886
H     -4.667436   -0.229362   -0.341955
H     -4.204889    0.998394   -1.545757
H     -4.943785   -0.236961   -2.985368
