48
 xtb: 6.6.1 (8d0f1dd)
C     -4.949200    0.783300   -1.638200
C     -3.504600    0.428500   -1.511400
C     -2.726800    0.406200   -2.646700
C     -1.363600    0.100000   -2.625100
C     -0.750700   -0.223400   -1.415000
C     -1.535700   -0.219500   -0.256200
C     -2.900500    0.114900   -0.269600
C     -3.570900    0.123900    1.012900
C     -2.862800   -0.182400    2.144000
C     -1.487900   -0.536500    2.098600
O     -0.792300   -0.826400    3.069000
O     -0.885700   -0.577300    0.884400
O     -4.864600    0.443300    1.016100
C     -5.577900    0.480300    2.243300
C      0.686600   -0.557800   -1.298700
C      1.244000   -1.642700   -1.979700
C      2.584100   -1.969400   -1.777300
C      3.394300   -1.271800   -0.904700
C      2.850000   -0.171200   -0.202700
C      1.503400    0.166600   -0.424700
O      0.905800    1.225400    0.181800
C      1.542800    1.965900    1.123000
O      0.894600    2.862200    1.654300
C      2.903800    1.658100    1.397500
C      3.562300    0.640800    0.762700
O      4.841200    0.337800    0.980100
C      5.594500    1.094900    1.916100
C      4.810900   -1.711200   -0.739400
O      0.455400   -2.339700   -2.819000
O     -0.708900    0.163800   -3.794200
H     -5.574100   -0.021300   -1.259900
H     -5.173700    1.673800   -1.056600
H     -5.195400    0.967400   -2.679100
H     -3.156900    0.646100   -3.605900
H     -3.299000   -0.170100    3.127100
H     -6.592700    0.758700    1.970200
H     -5.576000   -0.498400    2.726600
H     -5.155600    1.226300    2.919100
H      2.998400   -2.811900   -2.310100
H      3.369600    2.279800    2.141400
H      5.644700    2.144100    1.619500
H      6.588400    0.655000    1.899000
H      5.168400    1.014900    2.917800
H      5.492400   -0.905600   -0.999200
H      5.005200   -1.980900    0.295600
H      5.014900   -2.568700   -1.373000
H      0.925300   -3.099100   -3.201100
H      0.224600   -0.076600   -3.696900
