64

C     -7.280592    0.428856   -2.310204
C     -7.630313    0.984734   -0.932139
C     -7.149220    0.125811    0.232382
C     -5.653860    0.214254    0.324864
C     -4.899414   -0.879407    0.767338
C     -3.502086   -0.796842    0.832010
C     -2.858113    0.377444    0.452595
C     -3.614153    1.488676    0.024867
C     -5.016761    1.417466   -0.021193
C     -5.861000    2.598320   -0.388172
O     -5.475757    3.752647   -0.277861
O     -7.129020    2.330157   -0.806156
O     -2.998140    2.642711   -0.386213
C     -1.388276    0.441690    0.508869
O     -0.813399    1.499563    0.258508
C     -0.624533   -0.777070    0.880585
C     -1.244665   -1.901929    1.274759
C     -2.738269   -1.971780    1.296247
O     -3.341634   -2.970517    1.671802
O     -0.486398   -3.028027    1.580457
C     -0.823911   -3.630777    2.828954
C      0.830987   -0.681449    0.780723
C      1.613559   -0.509247    1.859108
C      3.097858   -0.420654    1.701089
O      3.856204   -0.375345    2.663168
C      3.657374   -0.382004    0.335581
C      2.843208   -0.541338   -0.780881
C      1.397086   -0.743749   -0.592425
O      0.679653   -0.955557   -1.567911
C      3.406205   -0.509050   -2.073476
C      4.788460   -0.315800   -2.240807
C      5.594289   -0.117509   -1.107581
C      5.033282   -0.171555    0.173546
C      7.063933    0.130702   -1.288050
C      7.285856    0.910526   -2.579348
O      6.665201    0.231745   -3.688861
C      5.439132   -0.353486   -3.590072
O      4.941661   -0.912042   -4.555461
C      6.812759    2.361672   -2.529514
O      2.616292   -0.628268   -3.186431
O      1.028742   -0.455279    3.122080
C      1.536838    0.574366    3.969612
H     -7.691343   -0.576359   -2.444477
H     -6.199521    0.388580   -2.478772
H     -7.689447    1.078297   -3.091841
H     -8.722575    1.057692   -0.869249
H     -7.566050    0.501615    1.174894
H     -7.479983   -0.910589    0.100648
H     -5.402474   -1.803923    1.055993
H     -2.026486    2.580911   -0.255898
H      0.063006   -4.157932    3.194096
H     -1.108958   -2.888238    3.582924
H     -1.615123   -4.373146    2.692959
H      5.669161   -0.041882    1.049448
H      7.482388    0.680539   -0.436882
H      7.563522   -0.844623   -1.346343
H      8.362513    0.917829   -2.787238
H      5.729193    2.439341   -2.396037
H      7.304908    2.908314   -1.719050
H      7.041699    2.863433   -3.477371
H      1.688093   -0.824841   -2.932273
H      0.758617    0.816356    4.700335
H      1.770750    1.488022    3.411800
H      2.409043    0.217945    4.525181
