43

C     -0.234373   -2.004461   -0.431423
C     -0.094689   -0.519405   -0.214325
C     -1.134777    0.326229   -0.046354
C     -2.559862    0.033068    0.088478
C     -3.444378    0.885920   -0.468716
C     -4.904625    0.765526   -0.400391
C     -5.648404    1.751986    0.255733
C     -7.040457    1.659500    0.317435
C     -7.696029    0.584619   -0.281673
C     -6.961633   -0.397481   -0.944909
C     -5.569729   -0.306368   -1.006969
C     -2.971141   -1.120705    0.968760
C      1.258679    0.047020   -0.241501
C      2.414775   -0.638401   -0.288299
C      3.737021   -0.041477   -0.307737
C      4.864293   -0.762786   -0.348373
C      6.141322   -0.102201   -0.366026
C      6.196380    1.236086   -0.341764
C      4.962162    2.037938   -0.297196
O      5.030127    3.262697   -0.275281
O      3.771429    1.371480   -0.281838
O      7.195875   -0.980167   -0.407818
C      8.509580   -0.432351   -0.428478
H     -1.249796   -2.300780   -0.702219
H      0.389840   -2.339521   -1.267715
H      0.058665   -2.554775    0.468512
H     -0.920630    1.395909    0.012929
H     -3.099700    1.746950   -1.038874
H     -5.148438    2.594163    0.728133
H     -7.612431    2.426567    0.832808
H     -8.779556    0.513762   -0.233801
H     -7.471917   -1.233094   -1.416456
H     -5.007346   -1.073454   -1.533927
H     -2.211733   -1.334957    1.728984
H     -3.140293   -2.025580    0.377867
H     -3.892900   -0.902670    1.519109
H      1.308383    1.135899   -0.204510
H      2.399621   -1.725253   -0.306084
H      4.851938   -1.848059   -0.368905
H      7.113903    1.806207   -0.352617
H      9.220408   -1.263307   -0.461202
H      8.663855    0.180091   -1.322825
H      8.706583    0.145633    0.480294
