96

C     -2.605857   -3.523307    0.813361
C     -2.843151   -2.037551    0.687374
C     -4.221565   -1.550408    0.740928
C     -5.349120   -2.263430    0.635441
C     -6.636030   -1.611601    0.746287
C     -7.843490   -2.086148    0.372935
C     -9.005917   -1.222957    0.602398
C    -10.213459   -1.328134    0.015820
C    -11.327220   -0.413536    0.281088
C    -11.251600    0.912348    0.016758
C    -12.403685    1.856198    0.280394
C    -13.739298    1.152625    0.480786
C    -13.579940   -0.021941    1.424954
C    -12.584055   -1.078449    0.887447
C    -12.204314   -1.969313    2.095043
C    -13.288145   -1.954943   -0.170872
C    -10.057674    1.617288   -0.590422
C     -8.079546   -3.428589   -0.270811
C     -1.871992   -1.111414    0.522842
C     -0.438154   -1.318744    0.498717
C      0.398420   -0.355648    0.096982
C      1.840387   -0.476533    0.151130
C      2.722480    0.278584   -0.534628
C      4.138735    0.150578   -0.201105
C      5.179716    0.662190   -0.885044
C      6.538157    0.597676   -0.374348
C      7.677678    0.939310   -1.008766
C      8.934314    0.882298   -0.263946
C     10.146273    1.217672   -0.729867
C     11.426345    1.126114    0.079656
C     12.242183   -0.039503   -0.465612
C     11.938300   -1.402306    0.090619
C     13.197394    0.144204   -1.393084
C     13.571589    1.490696   -1.960275
C     12.868269    2.702291   -1.333138
C     12.276167    2.451185    0.069830
C     13.433696    2.330591    1.101092
C     11.419359    3.657252    0.491256
C      7.757288    1.346504   -2.460505
C      2.346762    1.284642   -1.597439
H     -3.082376   -3.918863    1.718321
H     -3.013413   -4.053115   -0.054672
H     -1.544240   -3.780935    0.878912
H     -4.318005   -0.468583    0.867781
H     -5.314475   -3.332020    0.466555
H     -6.586970   -0.601353    1.167044
H     -8.839545   -0.395212    1.290500
H    -10.425583   -2.129080   -0.687845
H    -12.162097    2.459766    1.167088
H    -12.512775    2.552437   -0.557023
H    -14.130014    0.815140   -0.488053
H    -14.465042    1.857087    0.892066
H    -13.247935    0.349874    2.403491
H    -14.563153   -0.478555    1.598404
H    -11.663959   -1.391814    2.843464
H    -13.104809   -2.382317    2.560386
H    -11.577319   -2.826193    1.830304
H    -14.225646   -2.347214    0.219745
H    -13.519234   -1.391766   -1.080145
H    -12.682775   -2.812359   -0.463586
H     -9.282408    0.948745   -0.974368
H    -10.374713    2.228284   -1.448181
H     -9.587342    2.283489    0.148992
H     -7.180475   -4.051113   -0.320403
H     -8.822857   -3.992718    0.302477
H     -8.451859   -3.315006   -1.302451
H     -2.169123   -0.067892    0.406444
H     -0.048057   -2.276575    0.831503
H     -0.009797    0.589600   -0.258425
H      2.207422   -1.217236    0.867824
H      4.354213   -0.406625    0.714957
H      5.012597    1.201281   -1.812379
H      6.600111    0.263622    0.660944
H      8.861471    0.524473    0.766593
H     10.267047    1.548473   -1.755817
H     11.166834    0.917352    1.130210
H     12.611034   -2.165807   -0.321595
H     10.903971   -1.690525   -0.133440
H     12.079098   -1.398285    1.181562
H     13.753045   -0.716445   -1.763207
H     13.337006    1.471501   -3.036621
H     14.668703    1.608830   -1.870608
H     13.568590    3.547835   -1.313832
H     12.062837    3.013872   -2.015605
H     14.129926    1.524069    0.864693
H     13.048996    2.133591    2.108564
H     14.019044    3.258729    1.146837
H     12.028533    4.566205    0.558380
H     10.592556    3.865597   -0.210669
H     10.983900    3.492528    1.488949
H      6.786783    1.337526   -2.973731
H      8.198899    2.345303   -2.569999
H      8.392645    0.647029   -3.010643
H      2.696156    2.285330   -1.321916
H      2.792348    1.007040   -2.561405
H      1.272934    1.357208   -1.765768
