47
 xtb: 6.6.1 (8d0f1dd)
C      1.979800   -3.266300   -2.269100
C      1.109000   -2.322900   -1.509800
C     -0.260700   -2.551200   -1.422500
C     -1.100700   -1.683500   -0.743000
C     -0.591100   -0.537900   -0.114200
C      0.794900   -0.283900   -0.200300
C      1.626200   -1.178900   -0.903100
C      3.087800   -0.887000   -0.941800
O      3.952000   -1.671200   -0.612200
O      3.329200    0.336600   -1.391400
C      4.686600    0.786500   -1.446500
C      5.003400    1.700600   -0.255300
C      4.768400    0.989300    1.087900
O      5.274300    1.740700    2.163600
O      4.267700    2.900000   -0.315700
O      1.356800    0.773100    0.387200
C     -1.458900    0.386300    0.625200
O     -0.974900    1.381200    1.191400
C     -2.881200    0.090800    0.660500
C     -3.407700   -1.050700    0.025100
C     -2.539500   -2.001800   -0.694000
O     -2.990500   -3.007300   -1.225500
C     -4.761800   -1.324700    0.051300
C     -5.644200   -0.466900    0.714600
C     -5.145300    0.660500    1.352800
C     -3.781200    0.955200    1.338600
O     -3.263700    2.030500    1.938500
C     -4.111200    2.937900    2.628300
O     -6.945100   -0.775000    0.704100
H      1.445000   -4.185100   -2.486400
H      2.287100   -2.810100   -3.209200
H      2.879400   -3.492800   -1.702600
H     -0.700900   -3.420600   -1.886900
H      4.773100    1.350500   -2.376500
H      5.355000   -0.078000   -1.449900
H      6.055300    1.998000   -0.318600
H      3.691800    0.809900    1.222700
H      5.290100    0.030300    1.106000
H      4.941800    2.647900    2.081000
H      3.326300    2.681600   -0.388200
H      0.625800    1.279900    0.852700
H     -5.137500   -2.205500   -0.444400
H     -5.828300    1.316300    1.868000
H     -4.616900    2.446000    3.461700
H     -4.838800    3.387900    1.950000
H     -3.442700    3.706200    3.009300
H     -7.483800   -0.122500    1.183100
