40

C     -4.366547   -0.931899    0.606874
C     -3.679018   -1.217110   -0.728876
C     -4.444904   -2.308466   -1.481658
C     -3.563380    0.040727   -1.613223
C     -2.749669    1.184880   -1.004614
N     -1.375142    0.730500   -0.776093
C     -0.655026    1.605034   -0.159075
C      0.712918    1.299328    0.141769
C      1.667802    2.059552    0.780923
C      2.867454    1.302756    0.830731
C      2.622734    0.086539    0.217932
N      1.311626    0.106801   -0.191813
C      3.481095   -1.036767   -0.001681
C      3.226730   -2.250555   -0.614041
C      4.416575   -3.019396   -0.573132
C      5.370510   -2.259724    0.062353
N      4.795252   -1.063402    0.403758
O      1.384019    3.301589    1.237089
C      2.475713    3.953807    1.872311
H     -3.769653   -0.254998    1.225467
H     -5.352728   -0.479623    0.457407
H     -4.502324   -1.856258    1.178839
H     -2.673531   -1.603196   -0.520590
H     -5.467065   -1.989832   -1.712989
H     -3.944657   -2.555607   -2.424024
H     -4.502542   -3.225453   -0.885576
H     -3.104759   -0.241932   -2.569992
H     -4.567948    0.415767   -1.847054
H     -2.746815    2.023615   -1.711888
H     -3.214623    1.533963   -0.075574
H     -1.048271    2.590148    0.151869
H      3.808534    1.607299    1.265149
H      0.826987   -0.638641   -0.674125
H      2.286502   -2.562541   -1.049031
H      4.558561   -4.018030   -0.965442
H      6.405337   -2.464610    0.301039
H      5.265869   -0.309349    0.883292
H      2.133728    4.941024    2.197653
H      3.308184    4.100860    1.175688
H      2.802474    3.403195    2.761113
