27

C     -4.118050   -1.122952   -1.513556
C     -4.570965   -0.234046   -0.538418
C     -3.656637    0.472523    0.248000
C     -2.282314    0.300060    0.070234
C     -1.837874   -0.597509   -0.914546
C     -2.749240   -1.307848   -1.705112
C     -0.375849   -0.780593   -1.103253
O      0.040606   -1.557981   -1.955887
N      0.400838   -0.019627   -0.258124
C      1.805027    0.031001   -0.189906
C      2.746754   -0.653682   -0.935774
C      4.101496   -0.417632   -0.663743
C      4.496966    0.489282    0.338776
C      3.544649    1.178540    1.089578
C      2.217587    0.926611    0.800306
C      1.011715    1.489498    1.409655
O      0.946099    2.300683    2.302626
C     -0.147680    0.834251    0.677594
N     -1.403260    1.035434    0.888080
H     -4.832049   -1.671270   -2.123892
H     -5.638284   -0.088710   -0.387793
H     -4.015457    1.164257    1.006801
H     -2.396943   -2.001172   -2.465710
H      2.464755   -1.357305   -1.713353
H      4.862040   -0.944962   -1.237879
H      5.556675    0.652023    0.527432
H      3.829394    1.881127    1.866019
