62
 xtb: 6.6.1 (8d0f1dd)
C     -3.400100   -0.208800    2.666400
C     -4.019300    0.107200    1.339300
C     -5.007500    1.068000    1.229900
C     -5.572700    1.378900   -0.004400
C     -5.146100    0.711200   -1.143000
C     -4.155300   -0.257800   -1.038300
C     -3.584000   -0.561800    0.195800
C     -2.559200   -1.628800    0.266400
C     -1.169900   -1.364300    0.155400
C     -0.263800   -2.452300    0.229300
C     -0.745300   -3.755400    0.407200
C     -2.098100   -3.995900    0.503500
C     -2.997500   -2.919300    0.431700
O     -2.523800   -5.268500    0.668600
C      1.122600   -2.210000    0.118300
C      1.640600   -0.961700   -0.068000
C      0.752500    0.147200   -0.153200
C     -0.641100   -0.059000   -0.039600
O     -1.504800    0.951000   -0.106300
C      1.258100    1.482600   -0.355900
O      0.473700    2.471600   -0.441800
C      2.692900    1.689000   -0.467400
C      3.189700    3.006000   -0.664000
C      4.560100    3.206400   -0.766400
C      5.464300    2.146900   -0.683700
C      4.956700    0.864500   -0.493300
C      3.597700    0.622100   -0.384500
C      3.142000   -0.804500   -0.181200
C      3.619100   -1.635000   -1.389700
C      3.778900   -1.331700    1.120200
O      6.768100    2.455000   -0.797200
C      7.732300    1.414800   -0.721500
Cl     5.156700    4.819800   -1.004500
O      2.400000    4.080700   -0.756400
O     -3.711800   -0.942700   -2.130000
O     -6.537800    2.347100    0.011200
C     -7.151000    2.712100   -1.209700
H     -3.449300   -1.276700    2.868900
H     -3.904300    0.329800    3.463000
H     -2.349400    0.077900    2.660200
H     -5.358500    1.602200    2.098500
H     -5.565000    0.932600   -2.112200
H     -0.058000   -4.584200    0.463500
H     -4.060100   -3.103800    0.504600
H     -3.491600   -5.308100    0.715700
H      1.768000   -3.070700    0.184200
H     -0.994800    1.794100   -0.251300
H      5.647300    0.042700   -0.430100
H      4.698400   -1.594400   -1.487700
H      3.322700   -2.672400   -1.279600
H      3.173100   -1.243700   -2.301000
H      3.478300   -2.357500    1.303000
H      4.861400   -1.296200    1.065900
H      3.453500   -0.722100    1.959800
H      8.691400    1.913400   -0.838400
H      7.592100    0.692300   -1.527800
H      7.693100    0.914700    0.248200
H      1.456900    3.770500   -0.663400
H     -4.160000   -0.629000   -2.929600
H     -6.417900    3.107000   -1.918200
H     -7.680700    1.865100   -1.654200
H     -7.863400    3.491900   -0.950400
