26
 xtb: 6.6.1 (8d0f1dd)
C     -3.713800   -0.818200    1.272700
C     -3.168500   -0.158700    2.364600
C     -1.865900    0.304900    2.312700
C     -1.090500    0.116500    1.171300
C     -1.641200   -0.549300    0.067500
C     -2.954000   -1.011500    0.132800
C     -0.862600   -0.771800   -1.161700
O     -1.339700   -1.352800   -2.129200
C      0.523400   -0.260000   -1.170600
C      1.066800    0.405600   -0.050400
C      0.292200    0.622900    1.154500
O      0.758700    1.210500    2.143900
C      2.402800    0.864300   -0.127900
C      3.148800    0.656600   -1.289900
C      2.599500    0.006400   -2.382400
C      1.275700   -0.453100   -2.310800
O      3.273400   -0.209800   -3.517200
O      3.003200    1.500900    0.875600
H     -4.728700   -1.181100    1.309900
H     -3.757200   -0.005600    3.255200
H     -1.421900    0.820600    3.151200
H     -3.355500   -1.521700   -0.730000
H      4.163500    1.023000   -1.299200
H      0.841400   -0.963000   -3.156300
H      4.179800    0.139000   -3.475300
H      2.370300    1.585500    1.634300
