26

C     -3.741565   -0.819860    1.287604
C     -3.192209   -0.159646    2.386388
C     -1.877429    0.306492    2.335901
C     -1.109584    0.110931    1.180889
C     -1.657794   -0.548576    0.082774
C     -2.977350   -1.015380    0.135929
C     -0.855400   -0.758868   -1.138496
O     -1.339700   -1.339041   -2.102686
C      0.535076   -0.261999   -1.182559
C      1.086531    0.398867   -0.084049
C      0.278722    0.605610    1.133515
O      0.772946    1.188270    2.094853
C      2.409431    0.860321   -0.153055
C      3.173237    0.665687   -1.302275
C      2.609193    0.005538   -2.387850
C      1.299284   -0.459787   -2.339733
O      3.316325   -0.208335   -3.532837
O      3.026521    1.517581    0.878277
H     -4.766318   -1.183244    1.326787
H     -3.788493   -0.007654    3.283626
H     -1.456892    0.820750    3.198346
H     -3.413524   -1.531799   -0.717777
H      4.194695    1.032769   -1.329624
H      0.879103   -0.973863   -3.202087
H      4.208303    0.164797   -3.430199
H      2.386890    1.590439    1.623738
