35

C     -4.993659    0.465543   -0.073848
C     -3.576213   -0.063240   -0.301140
C     -3.401037   -1.387436    0.428341
C     -1.967527   -1.825929    0.339850
O     -1.635498   -3.006536    0.439405
C     -0.936684   -0.774693    0.220976
C      0.438015   -1.074761    0.205146
C      1.430130   -0.045526    0.151050
C      2.851419   -0.243038    0.124551
C      3.724309    0.851818    0.080366
C      3.221791    2.142247    0.061430
C      1.855023    2.372660    0.084746
C      0.956157    1.297059    0.128282
C     -0.420565    1.571635    0.147844
C     -1.360128    0.546144    0.176412
O     -2.673176    0.931868    0.186869
O      4.116802    3.170924    0.018949
O      3.298979   -1.541768    0.145157
C      4.697381   -1.781803    0.102534
O      0.847953   -2.388852    0.254482
O     -3.394689   -0.262839   -1.700488
H     -5.745399   -0.226731   -0.467630
H     -5.134588    1.424163   -0.586940
H     -5.187422    0.641040    0.989821
H     -4.023259   -2.163885   -0.030721
H     -3.647645   -1.298231    1.492381
H      4.801372    0.730386    0.060760
H      1.480207    3.392631    0.068367
H     -0.776625    2.600301    0.129003
H      3.632041    4.012425    0.009377
H      4.850883   -2.865187    0.118224
H      5.197104   -1.364056    0.982581
H      5.136741   -1.398700   -0.824281
H      0.061957   -2.974269    0.314184
H     -3.724151    0.536635   -2.144360
