34
 xtb: 6.6.1 (8d0f1dd)
C     -0.883400   -0.366000   -2.604700
N     -0.340900   -0.380900   -1.262900
C      0.332200   -1.495000   -0.844500
C      0.372600   -2.675200   -1.561300
C      1.134600   -3.764700   -1.111500
C      1.903400   -3.636600    0.095200
C      1.874700   -2.495800    0.816500
N      1.159700   -4.907700   -1.782400
C      1.071500   -1.390900    0.399000
N      1.040100   -0.321700    1.149400
C      0.241900    0.694400    0.807700
C      0.133500    1.809700    1.682500
C      0.791100    1.774200    3.020800
O      1.179700    2.972600    3.415800
O      0.929000    0.776900    3.689200
C     -0.637100    2.892000    1.323000
C     -1.336400    2.856600    0.123000
S     -2.363400    4.261100   -0.275900
O     -1.432800    5.372900   -0.503700
O     -3.227900    4.472900    0.890000
O     -3.115100    3.898800   -1.483100
C     -1.281700    1.804100   -0.741900
C     -0.472500    0.692200   -0.436700
H     -0.169600   -0.834200   -3.279400
H     -1.831500   -0.902600   -2.638300
H     -1.044900    0.654400   -2.934200
H     -0.199400   -2.797600   -2.464300
H      2.497600   -4.476000    0.419500
H      2.419300   -2.373100    1.737400
H      0.621200   -5.020100   -2.627000
H      1.707900   -5.684300   -1.447800
H      1.586800    2.955200    4.305900
H     -0.750200    3.757200    1.954600
H     -1.910200    1.877100   -1.613600
