41
 xtb: 6.6.1 (8d0f1dd)
O     -3.111500   -0.404400   -2.905300
C     -2.396000   -0.259800   -1.902400
C     -2.791000   -0.640000   -0.577300
C     -2.146900   -0.353200    0.618000
N     -2.838800   -0.860000    1.650500
C     -3.964200   -1.497000    1.186100
C     -3.978800   -1.375700   -0.221200
C     -5.020200   -1.939300   -0.950900
C     -6.016300   -2.601200   -0.262400
C     -5.991100   -2.712700    1.129000
C     -4.966700   -2.164800    1.874600
C     -1.062900    0.341800   -2.085300
N     -0.074700    0.386500   -1.242000
C      0.966400    1.019400   -1.885500
C      0.541500    1.379700   -3.240800
N     -0.747000    0.909900   -3.303200
O      1.148100    1.953900   -4.143400
C      2.210900    1.280500   -1.374000
C      2.698300    0.912900   -0.110100
C      2.061200    0.128000    0.852800
N      2.848700   -0.017700    1.925600
C      4.032400    0.657100    1.730600
C      3.982900    1.257400    0.453100
C      5.063800    2.007300    0.005200
C      6.160400    2.137200    0.834800
C      6.195900    1.538200    2.094300
C      5.133800    0.789400    2.562700
H     -1.240000    0.202500    0.746000
H     -2.586600   -0.770100    2.623300
H     -5.037500   -1.849400   -2.026200
H     -6.835300   -3.043300   -0.809500
H     -6.790600   -3.239200    1.627000
H     -4.947900   -2.253800    2.948900
H     -1.380300    0.950300   -4.086500
H      2.872600    1.826600   -2.034300
H      1.094900   -0.327400    0.766800
H      2.620200   -0.551900    2.750900
H      5.046900    2.475800   -0.967000
H      7.010700    2.714400    0.504600
H      7.071900    1.664900    2.711200
H      5.163000    0.327300    3.536200
