29

C     -4.175256    1.320441    0.433355
C     -2.896050    1.842695    0.239972
C     -1.787320    0.985926    0.191797
C     -1.958280   -0.390564    0.336830
C     -3.247014   -0.905394    0.530622
C     -4.349770   -0.054921    0.578690
O     -3.506735   -2.240566    0.682000
C     -0.785875   -1.282972    0.284650
O     -0.930808   -2.497824    0.411976
C      0.563209   -0.722435    0.079809
C      0.728115    0.654481   -0.064572
C     -0.440678    1.555416   -0.013577
O     -0.292527    2.764340   -0.140721
C      2.007202    1.196799   -0.259773
C      3.127217    0.357272   -0.310807
C      2.962915   -1.024172   -0.166083
C      1.688541   -1.556067    0.027630
O      1.618230   -2.916660    0.159741
C      4.459988    0.972467   -0.518769
O      4.679276    2.161232   -0.652216
O      5.451946    0.067457   -0.549193
H     -5.035774    1.984910    0.470791
H     -2.767482    2.918461    0.127200
H     -5.345341   -0.466183    0.729634
H     -2.657553   -2.731979    0.630079
H      2.131901    2.274461   -0.372278
H      3.818232   -1.695679   -0.202285
H      0.678225   -3.173632    0.290280
H      6.261469    0.602693   -0.690242
