29
 xtb: 6.6.1 (8d0f1dd)
C     -4.143200    1.316600    0.431800
C     -2.865800    1.832200    0.239000
C     -1.768100    0.988100    0.189900
C     -1.928900   -0.406600    0.334200
C     -3.231800   -0.920200    0.528000
C     -4.324000   -0.038200    0.573900
O     -3.494300   -2.214900    0.672100
C     -0.788300   -1.305000    0.287700
O     -0.932600   -2.538700    0.418100
C      0.539100   -0.728800    0.084300
C      0.711500    0.661500   -0.063000
C     -0.439300    1.586200   -0.016800
O     -0.290600    2.795000   -0.145000
C      1.972300    1.197600   -0.255800
C      3.091000    0.365200   -0.307100
C      2.944500   -1.001500   -0.164600
C      1.676300   -1.567100    0.032400
O      1.620000   -2.887100    0.161000
C      4.429500    0.978700   -0.517700
O      4.604700    2.173100   -0.647000
O      5.413800    0.100300   -0.549900
H     -4.990800    1.981600    0.469200
H     -2.700000    2.892100    0.124200
H     -5.301500   -0.467300    0.724100
H     -2.657400   -2.738800    0.622300
H      2.088200    2.265000   -0.367100
H      3.796400   -1.661200   -0.201000
H      0.682500   -3.176300    0.295400
H      6.286800    0.518400   -0.688200
