42
 xtb: 6.6.1 (8d0f1dd)
O      0.668600   -3.918600    0.311600
C      0.874800   -2.689600    0.182000
C     -0.203100   -1.732900    0.027100
C     -1.557600   -2.139200    0.004800
O     -1.887900   -3.432400    0.127600
C     -2.566300   -1.189000   -0.150000
C     -2.229900    0.172000   -0.273900
O     -3.154400    1.126200   -0.442300
C     -4.553600    0.857100   -0.185300
C     -5.325000    1.680300   -1.219700
C     -4.865200    1.342600    1.239000
C     -4.895900   -0.602000   -0.299300
C     -3.967100   -1.551700   -0.248100
C     -0.901000    0.577500   -0.271600
C      0.100000   -0.370400   -0.122600
O      1.377200    0.076200   -0.120300
C      2.400600   -0.787600    0.027100
C      3.710400   -0.143800    0.002400
C      4.865000   -0.799000    0.430000
C      6.087000   -0.158700    0.397300
C      6.192700    1.147300   -0.062500
O      7.394700    1.758800   -0.089900
C      5.032400    1.817800   -0.492100
O      5.197300    3.097900   -0.931400
C      3.813100    1.176200   -0.454600
C      2.193900   -2.125700    0.170000
H     -1.045700   -3.953400    0.226000
H     -5.111600    1.310900   -2.219600
H     -5.015900    2.719600   -1.158000
H     -6.391200    1.609600   -1.031800
H     -5.920500    1.208900    1.454200
H     -4.282500    0.771200    1.958600
H     -4.607600    2.394000    1.332100
H     -5.944400   -0.830700   -0.391600
H     -4.203000   -2.602400   -0.298700
H     -0.656100    1.619400   -0.381500
H      4.812500   -1.805200    0.808900
H      6.983700   -0.655300    0.729800
H      7.287600    2.664600   -0.429000
H      4.351300    3.481100   -1.203900
H      2.923800    1.688200   -0.787600
H      3.018900   -2.809500    0.263600
