42

O      0.726929   -3.826850   -0.240826
C      0.914724   -2.617325   -0.168925
C     -0.209666   -1.673764   -0.125527
C     -1.541829   -2.109995   -0.161862
O     -1.857413   -3.446281   -0.240330
C     -2.589568   -1.175447   -0.118868
C     -2.282285    0.188035   -0.039717
O     -3.216550    1.184354    0.003681
C     -4.617117    0.837655    0.012635
C     -5.248796    1.575187   -1.173902
C     -5.191410    1.383567    1.325163
C     -4.928160   -0.635643   -0.094444
C     -3.988249   -1.582359   -0.157083
C     -0.952734    0.616780   -0.005526
C      0.081543   -0.314880   -0.048374
O      1.362476    0.176600   -0.013261
C      2.417386   -0.722288   -0.040770
C      3.750773   -0.089123   -0.001456
C      4.783997   -0.608272    0.801390
C      6.039705    0.004697    0.838218
C      6.260456    1.140931    0.077168
O      7.486465    1.739409    0.113491
C      5.248272    1.674434   -0.714317
O      5.534415    2.800565   -1.436230
C      3.995124    1.070910   -0.757689
C      2.270522   -2.052423   -0.122594
H     -1.022658   -3.966492   -0.261567
H     -4.818945    1.229617   -2.121872
H     -5.045355    2.651121   -1.118137
H     -6.334204    1.432266   -1.216229
H     -6.274079    1.230991    1.394893
H     -4.719522    0.899912    2.188986
H     -4.987761    2.456316    1.424225
H     -5.974311   -0.930077   -0.117240
H     -4.236682   -2.635587   -0.231290
H     -0.730672    1.678919    0.056330
H      4.621035   -1.489016    1.419092
H      6.834465   -0.398302    1.458863
H      7.403740    2.506820   -0.487162
H      4.735280    3.060823   -1.926192
H      3.206903    1.487893   -1.377954
H      3.093756   -2.753680   -0.167966
