26
 xtb: 6.6.1 (8d0f1dd)
O      2.441700   -2.990900   -0.883600
C      2.433500   -1.777300   -0.601200
C      3.609000   -0.974400   -0.549000
C      3.558800    0.357300   -0.256200
C      2.363200    1.028300    0.037900
C      1.171700    0.341100    0.027100
N     -0.036100    0.910600    0.361100
C     -1.200300    0.235000    0.145900
C     -1.125100   -1.131800   -0.248300
N      0.058900   -1.752500   -0.424200
C      1.158200   -1.068400   -0.326200
C     -2.303300   -1.871900   -0.452300
C     -3.527900   -1.279700   -0.291900
C     -3.603300    0.070600    0.067100
C     -2.470800    0.817200    0.285200
C     -0.048500    2.225800    0.966400
H      4.545900   -1.469300   -0.755500
H      4.476300    0.927500   -0.243600
H      2.409600    2.082300    0.246700
H     -2.194700   -2.903200   -0.744800
H     -4.431800   -1.844800   -0.451000
H     -4.570400    0.537600    0.168200
H     -2.574500    1.860600    0.529300
H     -0.922700    2.328100    1.602200
H     -0.054800    3.004600    0.203200
H      0.837100    2.337700    1.587600
