33

O      1.828412   -2.769563   -0.744868
C      1.685966   -1.633714   -0.308749
C      0.421169   -0.899959   -0.520440
C     -0.612033   -1.510134   -1.236206
C     -1.810937   -0.830278   -1.440023
O     -2.766233   -1.497716   -2.155198
C     -2.019505    0.462442   -0.937784
C     -3.291622    1.236087   -1.202489
O     -4.422011    0.358511   -1.334791
C     -5.068173    0.135170   -0.082803
C     -0.962831    1.066637   -0.235824
O     -1.165835    2.345935    0.222981
C      0.252911    0.389670   -0.019095
C      2.780230   -0.983207    0.437459
C      3.985281   -1.667220    0.642218
C      5.023808   -1.056681    1.347304
C      4.862567    0.234696    1.848506
C      3.662431    0.918130    1.645672
C      2.619588    0.306430    0.938267
C      1.354024    1.032719    0.727175
O      1.202940    2.169996    1.165529
H     -0.491492   -2.514125   -1.639498
H     -3.594216   -0.972469   -2.114120
H     -3.496787    1.991121   -0.435334
H     -3.175988    1.755759   -2.160142
H     -5.887672   -0.570324   -0.243710
H     -4.372125   -0.297068    0.642269
H     -5.484971    1.070734    0.302185
H     -0.353244    2.644105    0.694367
H      4.118827   -2.675722    0.253755
H      5.959111   -1.589636    1.505051
H      5.672543    0.709999    2.397805
H      3.545866    1.925887    2.040531
