97
 xtb: 6.6.1 (8d0f1dd)
C     11.506500    2.434800   -1.845700
C     12.568400    1.612800   -1.174100
C     12.654400    0.208100   -1.690200
C     13.327400    2.126100   -0.212800
C     14.375700    1.430200    0.597400
C     13.794100    0.965500    1.952700
C     12.767200   -0.105800    1.743200
C     13.288600   -1.507900    1.656700
C     11.469000    0.219700    1.606400
C     10.391500   -0.684100    1.350500
C      9.113300   -0.270500    1.191800
C      7.976200   -1.101400    0.929100
C      8.200600   -2.577400    0.785500
C      6.747500   -0.514200    0.831000
C      5.498000   -1.138600    0.596200
C      4.330400   -0.442200    0.548800
C      3.029300   -0.984300    0.333400
C      2.902500   -2.463500    0.117500
C      1.956800   -0.132800    0.336900
C      0.591700   -0.448100    0.161600
C     -0.398900    0.489000    0.185200
C     -1.764600    0.170600    0.017400
C     -2.838400    1.019400    0.019300
C     -2.713700    2.502400    0.207500
C     -4.142100    0.469200   -0.166400
C     -5.312000    1.159400   -0.199600
C     -6.566500    0.522700   -0.385700
C     -7.798400    1.099800   -0.448800
C     -8.029100    2.577000   -0.339600
C     -8.944600    0.247600   -0.632800
C    -10.227900    0.646500   -0.670800
C    -11.376700   -0.237300   -0.839600
C    -11.442500   -1.178400   -1.792000
C    -10.371300   -1.407000   -2.818600
C    -12.612200   -2.109900   -1.945700
C    -13.871100   -1.624400   -1.238200
O    -14.790300   -2.705000   -1.213000
C    -13.495500   -1.155200    0.162800
C    -12.520800    0.029600    0.132600
C    -11.965200    0.209000    1.552800
C    -13.259900    1.311200   -0.280700
H     11.691000    2.493000   -2.917700
H     10.532600    1.967200   -1.702200
H     11.471700    3.443600   -1.442800
H     11.738600   -0.326300   -1.438700
H     12.747800    0.216400   -2.775400
H     13.493600   -0.335400   -1.270700
H     13.152600    3.154300    0.082300
H     15.195900    2.123900    0.794200
H     14.781400    0.569300    0.066400
H     14.608100    0.588600    2.574700
H     13.346800    1.827800    2.450600
H     13.153200   -2.014400    2.613000
H     12.770500   -2.084000    0.894700
H     14.351400   -1.504900    1.428000
H     11.193100    1.264500    1.683300
H     10.628600   -1.734700    1.285300
H      8.912100    0.792000    1.273000
H      7.281500   -3.105700    0.559200
H      8.611800   -2.982200    1.709200
H      8.913300   -2.769800   -0.015100
H      6.706500    0.562800    0.955300
H      5.476700   -2.208400    0.457700
H      4.378600    0.631000    0.694700
H      1.872600   -2.759400   -0.046900
H      3.280000   -3.001500    0.986000
H      3.488300   -2.764400   -0.750000
H      2.169100    0.918700    0.498300
H      0.306700   -1.479200    0.003900
H     -0.114800    1.520600    0.341600
H     -1.975700   -0.883200   -0.130200
H     -3.116000    3.023500   -0.660100
H     -3.278800    2.815500    1.084400
H     -1.681300    2.805900    0.339600
H     -4.188100   -0.606700   -0.291800
H     -5.294000    2.231300   -0.078500
H     -6.521800   -0.556400   -0.486000
H     -8.622900    2.797200    0.546900
H     -8.575900    2.933900   -1.211100
H     -7.097600    3.127300   -0.271600
H     -8.729600   -0.809300   -0.717300
H    -10.463400    1.689400   -0.512800
H    -10.824700   -1.555000   -3.797600
H     -9.806200   -2.308200   -2.581600
H     -9.680800   -0.570800   -2.873300
H    -12.831800   -2.271000   -3.003100
H    -12.351900   -3.087300   -1.525100
H    -14.313000   -0.792500   -1.807400
H    -15.589500   -2.431500   -0.743400
H    -14.393000   -0.870000    0.717000
H    -13.031100   -1.995500    0.683900
H    -11.340900    1.095000    1.623700
H    -11.364500   -0.652800    1.835300
H    -12.783700    0.308400    2.262500
H    -12.606300    2.175400   -0.202400
H    -14.115900    1.476400    0.370000
H    -13.608600    1.244600   -1.308000
