66
 xtb: 6.6.1 (8d0f1dd)
C     -1.252500   -1.066600    2.643200
C     -2.230700   -0.228900    1.872000
O     -2.632600    0.834400    2.303900
C     -2.715000   -0.851700    0.572000
C     -1.543900   -1.397200   -0.206000
C     -0.402400   -0.586000   -0.400700
C     -0.398400    0.810900   -0.133400
C     -1.560800    1.616500   -0.258700
C     -2.724600    1.084700   -1.041200
C     -3.617800    0.068200   -0.294800
C     -4.376400   -0.779700   -1.319900
O     -4.606200    0.706300    0.479400
C     -1.579200    2.911100    0.214800
C     -0.409600    3.478800    0.867100
C      0.807700    2.707400    0.797100
C      0.827500    1.409500    0.235800
C      2.048100    0.715300    0.045100
C      2.028700   -0.479000   -0.717800
C      0.811600   -1.187500   -0.816900
C      0.779700   -2.514400   -1.305700
C      1.987800   -3.101800   -1.868700
O      2.006100   -4.278400   -2.319900
C      3.135700   -2.264800   -1.953400
C      3.166300   -0.997300   -1.441100
O      4.166000   -0.130500   -1.644700
C      5.311100   -0.541800   -2.372300
C     -0.393200   -3.276800   -1.233700
C     -1.547000   -2.730800   -0.591500
O     -2.678100   -3.422600   -0.311800
C     -2.773400   -4.829900   -0.471800
O     -0.429300   -4.519500   -1.704300
C      3.224800    1.240300    0.681400
C      3.189700    2.493100    1.253200
C      2.011600    3.251900    1.288600
O      2.076900    4.451500    1.847300
O      4.270900    0.416200    0.769800
C      5.454800    0.851700    1.420600
O     -0.426400    4.613100    1.415300
O     -2.738600    3.591700    0.033000
C     -2.878600    4.962000    0.361400
H     -0.244200   -0.804900    2.327100
H     -1.340700   -0.840700    3.702800
H     -1.406300   -2.124300    2.459200
H     -3.335400   -1.700900    0.883600
H     -3.357800    1.916000   -1.349800
H     -2.329600    0.587000   -1.928200
H     -3.690300   -1.377900   -1.909400
H     -5.071800   -1.433400   -0.801700
H     -4.944200   -0.123800   -1.973200
H     -4.171500    1.198700    1.195200
H      3.976900   -2.684200   -2.481100
H      5.959400    0.330500   -2.399800
H      5.043400   -0.836000   -3.389500
H      5.818100   -1.367600   -1.869700
H     -1.984300   -5.349400    0.073100
H     -2.738600   -5.117100   -1.522700
H     -3.743900   -5.084600   -0.050500
H      0.490700   -4.734800   -2.064400
H      4.054400    2.931600    1.721700
H      1.154600    4.845000    1.841700
H      5.257800    1.096800    2.466100
H      5.886700    1.714100    0.910200
H      6.137200    0.007300    1.362600
H     -2.791300    5.127400    1.436100
H     -3.880800    5.220000    0.023800
H     -2.138600    5.575700   -0.155600
