30
 xtb: 6.6.1 (8d0f1dd)
O      1.336400   -2.692500    0.061500
C      1.354600   -1.471900    0.057000
C      2.640900   -0.723400    0.088900
O      3.701000   -1.536800    0.120100
C      5.002900   -0.969800    0.153800
C      2.658700    0.625500    0.084900
C      1.456900    1.448600    0.049100
O      1.559900    2.676000    0.047000
C      0.127000   -0.658100    0.020900
C      0.172100    0.744000    0.017000
C     -1.054300    1.453900   -0.018300
O     -0.989500    2.789400   -0.021200
C     -2.185900    3.553200   -0.057000
C     -2.254800    0.748000   -0.047800
C     -2.281100   -0.645000   -0.043600
O     -3.501700   -1.208100   -0.074500
C     -3.611400   -2.624300   -0.071800
C     -1.077700   -1.348500   -0.009000
H      5.682500   -1.817800    0.174300
H      5.183300   -0.364400   -0.736700
H      5.135100   -0.359800    1.049500
H      3.581400    1.185000    0.108100
H     -1.853300    4.588400   -0.052000
H     -2.801900    3.358100    0.823000
H     -2.752700    3.351100   -0.968000
H     -3.203800    1.256200   -0.075000
H     -4.679500   -2.825100   -0.099800
H     -3.178100   -3.049500    0.835500
H     -3.130000   -3.056600   -0.951100
H     -1.037200   -2.425700   -0.004100
