26
 xtb: 6.6.1 (8d0f1dd)
O      0.191800   -2.449900   -0.030400
C      0.094100   -1.202200   -0.015000
C      1.281300   -0.361300    0.023100
C      1.178100    1.044800    0.039700
C      2.316700    1.834100    0.074900
C      3.578000    1.250200    0.093800
C      3.702200   -0.118900    0.078500
C      2.567700   -0.944400    0.043800
O      2.775300   -2.259700    0.033000
C     -0.134100    1.713500    0.020400
C     -1.326300    0.849500   -0.017500
C     -2.573900    1.452700   -0.035600
C     -3.729100    0.680500   -0.071100
C     -3.638900   -0.691300   -0.088700
C     -2.389700   -1.330900   -0.071200
O     -2.390300   -2.662400   -0.090400
C     -1.209600   -0.555600   -0.034900
O     -0.229900    2.936400    0.035200
H      2.194500    2.906100    0.087100
H      4.458500    1.871700    0.120900
H      4.666400   -0.601100    0.093000
H      1.908800   -2.735600    0.009200
H     -2.619600    2.530700   -0.021200
H     -4.695500    1.158200   -0.084900
H     -4.516400   -1.317200   -0.116400
H     -1.460200   -2.997800   -0.075000
