57
 xtb: 6.6.1 (8d0f1dd)
C      8.794100    1.842900   -2.133800
O      7.746600    1.036500   -1.588500
C      7.067300    1.529700   -0.555200
O      7.298400    2.616100   -0.070300
C      6.003500    0.570100   -0.093300
C      5.189900    1.131000    1.076600
C      4.113400    0.161400    1.473000
C      2.923300    0.113700    0.768900
C      1.916300   -0.795700    1.081600
C      2.122200   -1.694400    2.134900
C      3.320200   -1.648200    2.843600
C      4.300900   -0.735900    2.518200
O      1.239600   -2.661400    2.490500
C      0.680100   -0.773600    0.271700
C     -0.581900   -0.560800    0.877900
C     -1.749000   -0.465200    0.097300
C     -1.660600   -0.608000   -1.315900
C     -0.414300   -0.827900   -1.907300
C      0.762600   -0.892200   -1.107400
O      1.940700   -1.086300   -1.704000
O     -0.221800   -0.985500   -3.218300
C     -2.834000   -0.524900   -2.164100
O     -2.774900   -0.668100   -3.391700
C     -4.124300   -0.246100   -1.505800
C     -5.258700   -0.115600   -2.280600
C     -6.500700    0.173200   -1.704000
C     -6.586600    0.319700   -0.296200
C     -5.432100    0.183800    0.481000
C     -4.201400   -0.095800   -0.111400
C     -3.017400   -0.216100    0.739700
O     -3.135800   -0.101600    1.974600
C     -5.474800    0.412000    1.970200
O     -5.369300    1.515900    2.458100
O     -5.718800   -0.690000    2.648500
C     -7.901100    0.614700    0.305500
O     -8.902000    0.829800   -0.366400
O     -7.937000    0.617700    1.619200
O     -7.535300    0.293500   -2.517200
O     -0.598600   -0.448500    2.203400
H      9.193200    1.277500   -2.969800
H      9.560800    2.019800   -1.378600
H      8.393700    2.802300   -2.463500
H      5.353600    0.347500   -0.941500
H      6.491800   -0.363600    0.191100
H      5.858200    1.323500    1.916600
H      4.751500    2.084000    0.776100
H      2.756600    0.810000   -0.038800
H      3.454400   -2.352200    3.649400
H      5.220700   -0.718900    3.082400
H      0.405400   -2.568600    2.012300
H      1.812000   -1.178300   -2.667800
H     -1.092400   -0.923200   -3.689800
H     -5.195000   -0.226900   -3.352200
H     -5.742300   -0.534400    3.613600
H     -8.831100    0.821000    1.965200
H     -8.356400    0.522700   -2.016200
H     -1.523100   -0.261600    2.511300
