28
 xtb: 6.6.1 (8d0f1dd)
C     -4.331300    0.969800   -1.095900
C     -4.617600    0.751500    0.251100
C     -3.618500    0.404900    1.134000
C     -2.302400    0.269400    0.679200
C     -2.012200    0.490400   -0.684900
C     -3.039800    0.840600   -1.561300
C     -0.642700    0.353000   -1.176600
O     -0.293000    0.523000   -2.335300
N      0.255000    0.001500   -0.182800
C      1.639200   -0.211100   -0.307200
C      2.153200   -0.549900    0.959600
C      3.514200   -0.818200    1.136900
C      4.335300   -0.735500    0.001900
C      3.808100   -0.401600   -1.226700
C      2.446900   -0.130600   -1.413000
O      4.038500   -1.140100    2.316800
C      1.082600   -0.558500    1.929700
O      1.140900   -0.805500    3.125000
C     -0.132200   -0.192800    1.133200
N     -1.324800   -0.076000    1.576400
H     -5.122300    1.240700   -1.776600
H     -5.631200    0.855200    0.604400
H     -3.816900    0.231700    2.178600
H     -2.789800    1.003800   -2.598700
H      5.386600   -0.939700    0.119300
H      4.464100   -0.345200   -2.080200
H      2.050200    0.129500   -2.379500
H      3.359700   -1.160200    3.017200
