30

C      4.240129    1.652524    1.367696
O      2.916489    1.269061    1.021019
C      2.741202    0.218790    0.138745
C      3.728052   -0.487561   -0.432065
C      3.472906   -1.595843   -1.364206
O      4.398255   -2.219613   -1.867725
C      2.080181   -1.930549   -1.671036
C      1.066507   -1.255563   -1.127178
C      1.308641   -0.124400   -0.177940
N      0.337867    0.549582    0.364385
C     -0.969187    0.174459    0.021968
C     -1.240875   -0.877685   -0.858717
O     -0.237965   -1.609409   -1.447224
C     -2.553473   -1.228312   -1.172480
C     -3.612642   -0.520006   -0.603994
C     -3.364251    0.544721    0.273990
C     -2.037040    0.877497    0.584918
C     -4.509544    1.291948    0.901081
O     -5.111364    0.507158    1.921248
H      4.175911    2.490926    2.067584
H      4.766085    0.834038    1.869654
H      4.793286    1.991329    0.485798
H      4.777479   -0.296302   -0.250721
H      1.918270   -2.750904   -2.359209
H     -2.752181   -2.050349   -1.854387
H     -4.636636   -0.801231   -0.844610
H     -1.818346    1.692254    1.272224
H     -5.267506    1.537047    0.149827
H     -4.170903    2.233406    1.345987
H     -4.439348   -0.117012    2.245368
