30
 xtb: 6.6.1 (8d0f1dd)
C      4.177400    1.680200    1.264900
O      2.871300    1.241600    0.925600
C      2.733600    0.208700    0.086300
C      3.736500   -0.494700   -0.495700
C      3.500000   -1.606600   -1.396400
O      4.443200   -2.228500   -1.911600
C      2.122900   -1.951500   -1.661700
C      1.110300   -1.259400   -1.092300
C      1.346600   -0.142800   -0.187400
N      0.387700    0.529200    0.366600
C     -0.898200    0.173700    0.085000
C     -1.179300   -0.901700   -0.785600
O     -0.174500   -1.607200   -1.363500
C     -2.495300   -1.253700   -1.063600
C     -3.519000   -0.537100   -0.481500
C     -3.261100    0.531000    0.386500
C     -1.957300    0.880100    0.668500
C     -4.418000    1.297000    0.983900
O     -5.556600    0.502300    1.224400
H      4.027800    2.514000    1.945800
H      4.738500    0.886100    1.761900
H      4.719300    2.013500    0.377300
H      4.773800   -0.261100   -0.316700
H      1.922300   -2.775600   -2.327400
H     -2.687000   -2.077100   -1.731800
H     -4.546300   -0.794500   -0.689000
H     -1.716100    1.694900    1.331000
H     -4.744500    2.057900    0.266800
H     -4.094900    1.808900    1.897800
H     -5.363200   -0.127800    1.931800
