36

C      3.657777   -1.110708    0.701117
C      5.051366   -1.171986    0.627587
C      5.738659   -0.274272   -0.178690
C      5.055887    0.687355   -0.914632
C      3.660984    0.749289   -0.838816
C      2.945083   -0.146380   -0.028704
C      1.467748   -0.081893    0.033040
C      0.818813    0.090028    1.196353
C     -0.666260    0.162415    1.275828
O     -1.166214    0.325757    2.387831
C     -1.466303    0.040548    0.028827
C     -0.817429   -0.127796   -1.134995
C      0.668140   -0.187791   -1.215770
O      1.168807   -0.326357   -2.331047
O     -1.485907   -0.267131   -2.346167
C     -2.944061    0.086328    0.092296
C     -3.645829   -0.820816    0.900429
C     -5.040447   -0.779071    0.970304
C     -5.739462    0.169416    0.235173
C     -5.067356    1.082275   -0.569394
C     -3.671450    1.040749   -0.637651
O     -7.099067    0.172713    0.331810
O      1.487279    0.225593    2.407669
O      7.097499   -0.371459   -0.223088
H      3.136137   -1.821141    1.338445
H      5.596744   -1.918242    1.198224
H      5.583815    1.390223   -1.551106
H      3.138110    1.501336   -1.426063
H     -0.782151   -0.402747   -3.018467
H     -3.115944   -1.566445    1.489039
H     -5.577474   -1.483376    1.599314
H     -5.604680    1.826909   -1.147752
H     -3.155934    1.758187   -1.272538
H     -7.448286    0.883120   -0.230633
H      0.784276    0.358277    3.081351
H      7.437128    0.307094   -0.829124
