42
 xtb: 6.6.1 (8d0f1dd)
C      7.154100    1.178900   -0.282500
O      5.830700    1.694700   -0.253500
C      4.805800    0.841200   -0.199500
C      4.896800   -0.529200   -0.169800
C      3.749200   -1.342800   -0.110700
O      3.956100   -2.652000   -0.086500
C      2.468900   -0.762700   -0.081500
C      1.297500   -1.617600   -0.019700
O      1.406800   -2.853400    0.025900
C     -0.018100   -0.963000   -0.003400
C     -0.104600    0.398800   -0.011000
O     -1.249900    1.071300    0.026500
C     -2.427000    0.400300    0.104600
C     -3.556900    1.206100    0.176400
C     -4.804700    0.605900    0.259000
O     -5.971900    1.263300    0.336400
C     -5.966400    2.683500    0.336900
C     -4.886000   -0.795100    0.265600
C     -3.772400   -1.601600    0.191400
C     -3.945200   -3.082200    0.203000
C     -2.490200   -1.002000    0.107500
C     -1.251900   -1.779700    0.015700
O     -1.225900   -3.003900   -0.049300
C      1.071900    1.294800   -0.072900
O      0.907000    2.520900   -0.092900
C      2.364000    0.654500   -0.111000
C      3.509800    1.460200   -0.170100
O      3.482200    2.780200   -0.199700
H      7.310100    0.560000   -1.167800
H      7.797600    2.053900   -0.322500
H      7.365000    0.601000    0.619000
H      5.845000   -1.039800   -0.189700
H      3.077700   -3.119100   -0.040700
H     -3.412800    2.272700    0.166100
H     -7.012300    2.971300    0.407300
H     -5.416500    3.071700    1.196400
H     -5.536300    3.072800   -0.587900
H     -5.869100   -1.233000    0.330700
H     -3.376800   -3.524900    1.018800
H     -4.993900   -3.342700    0.305100
H     -3.549400   -3.514900   -0.714000
H      2.542200    3.101500   -0.172000
