46
 xtb: 6.6.1 (8d0f1dd)
C      6.509800    0.285800   -0.270300
C      5.538100   -0.796500    0.058300
C      4.239700   -0.601000    0.326300
C      3.508900    0.671800    0.330900
O      3.987300    1.780900    0.083400
N      2.200800    0.539400    0.667100
C      1.265000    1.631400    0.589500
C      0.489300    1.639300   -0.745700
C     -0.331400    0.400700   -0.880600
C      0.151400   -0.717500   -1.466100
C     -0.579000   -1.968900   -1.571800
O     -0.083500   -2.969100   -2.086200
C     -1.955000   -1.966400   -1.012300
N     -2.667200   -3.075500   -1.111500
C     -3.897900   -3.083300   -0.611900
C     -4.487400   -2.002800    0.012000
C     -3.759600   -0.810400    0.135800
C     -2.451900   -0.799500   -0.398800
C     -1.667300    0.396600   -0.307500
N     -2.114400    1.481600    0.260200
C     -3.357000    1.506700    0.795900
C     -3.771000    2.706900    1.402400
C     -5.021200    2.804700    1.957700
C     -5.891500    1.711600    1.923400
C     -5.508800    0.526800    1.337800
C     -4.239500    0.392500    0.763800
C      6.117800   -2.175300    0.075700
H      6.016200    1.249400   -0.337300
H      7.276400    0.333300    0.501400
H      7.004600    0.065000   -1.214100
H      3.629100   -1.465000    0.555100
H      1.817400   -0.387400    0.768200
H      0.563100    1.566600    1.422100
H      1.846300    2.552500    0.663800
H      1.209000    1.707600   -1.561100
H     -0.162900    2.509900   -0.745900
H      1.143400   -0.726100   -1.896900
H     -4.427500   -4.018600   -0.726900
H     -5.490800   -2.088100    0.393300
H     -3.077200    3.531400    1.412600
H     -5.338200    3.725000    2.422200
H     -6.873600    1.798500    2.361200
H     -6.195100   -0.304500    1.322600
H      6.951700   -2.217800    0.773600
H      5.378800   -2.919200    0.358900
H      6.505000   -2.422900   -0.911200
