45

O     -0.222910   -2.727531   -0.175372
C      0.077323   -1.554163   -0.150038
C     -0.763326   -0.385160    0.108614
C     -2.110014   -0.277414    0.391725
O     -2.839491   -1.422426    0.466267
C     -2.631085    1.011109    0.591990
C     -4.054675    1.138620    0.898941
C     -4.803874    0.033786    0.945864
C     -4.257846   -1.351373    0.700414
C     -4.936599   -1.955717   -0.534042
C     -4.535426   -2.230141    1.925540
C     -1.786531    2.158202    0.498825
O     -2.393460    3.373557    0.710525
C     -1.598501    4.544869    0.574819
C     -0.423231    2.010692    0.210293
C      0.060731    0.732738    0.021362
O      1.371499    0.428266   -0.265849
C      1.420502   -0.954198   -0.380007
C      2.503464   -1.684536   -0.678183
C      3.843544   -1.142511   -0.930660
C      4.572597   -1.630972   -2.027631
C      5.862039   -1.162461   -2.292589
C      6.422870   -0.215551   -1.450757
O      7.683081    0.242182   -1.707147
C      5.718795    0.264143   -0.349989
O      6.338267    1.189097    0.445676
C      4.433382   -0.195408   -0.079443
H     -4.480494    2.119695    1.077895
H     -5.864493    0.124001    1.166608
H     -4.713249   -1.365583   -1.431065
H     -6.024905   -2.008706   -0.419765
H     -4.561079   -2.966969   -0.730115
H     -4.022089   -1.837845    2.811795
H     -4.151777   -3.245794    1.772510
H     -5.605775   -2.296982    2.149568
H     -2.245461    5.409594    0.751088
H     -1.194150    4.632974   -0.438896
H     -0.800836    4.568065    1.324394
H      0.258363    2.847936    0.130174
H      2.403978   -2.764665   -0.773885
H      4.138387   -2.376181   -2.691360
H      6.421524   -1.535024   -3.145137
H      7.861421    0.882654   -0.990093
H      5.738104    1.407083    1.179364
H      3.891408    0.168051    0.787774
