32
 xtb: 6.6.1 (8d0f1dd)
C      3.878700    2.279900    0.077800
O      2.821000    1.323600    0.159200
C      3.085000    0.184500    0.766000
O      4.200400   -0.063000    1.230900
C      1.977300   -0.775300    0.823300
C      2.227200   -2.063400    1.297700
C      1.189700   -3.042400    1.320100
C     -0.061200   -2.754800    0.891000
C     -0.367900   -1.451500    0.413000
N     -1.601200   -1.198900   -0.000700
C     -1.883100    0.023900   -0.446100
C     -3.181300    0.355700   -0.933700
C     -3.463600    1.655900   -1.275800
C     -2.490300    2.667300   -1.191000
C     -1.226600    2.379900   -0.764000
C     -0.891200    1.058200   -0.384600
N      0.348900    0.800500    0.035200
C      0.653900   -0.438400    0.397300
C     -4.246800   -0.662700   -1.087400
O     -5.432300   -0.381300   -1.079100
O     -3.807200   -1.891200   -1.264100
O      3.408800   -2.470800    1.737800
H      3.513100    3.061300   -0.581100
H      4.779600    1.813100   -0.325200
H      4.098400    2.677300    1.070200
H      1.458300   -4.019600    1.688200
H     -0.851200   -3.487800    0.884000
H     -4.457400    1.887000   -1.629300
H     -2.754700    3.672100   -1.479100
H     -0.452000    3.127100   -0.708100
H     -4.534900   -2.539100   -1.341700
H      4.062700   -1.727100    1.699300
