29

C     -4.257519    1.145750    0.095868
C     -2.928906    0.465094   -0.092428
C     -2.827939   -0.735642   -0.805764
C     -1.596859   -1.356842   -1.005870
C     -0.432301   -0.768077   -0.498482
C     -0.500023    0.437388    0.198419
C     -1.748871    1.052679    0.392996
O     -1.868697    2.248826    1.057337
C      0.738845    1.052780    0.718014
O      0.678864    2.117344    1.326963
C      2.035409    0.384162    0.501224
C      3.208990    0.965982    0.997342
C      4.438856    0.337413    0.794986
C      4.499977   -0.869593    0.099019
C      3.331348   -1.450587   -0.396111
C      2.096456   -0.821348   -0.193930
C      0.864502   -1.439392   -0.719869
O      0.914703   -2.498560   -1.334298
O     -3.962645   -1.301102   -1.315532
H     -5.088001    0.433716    0.055919
H     -4.403873    1.898578   -0.684862
H     -4.317650    1.630825    1.075779
H     -1.531129   -2.292880   -1.555670
H     -0.974354    2.541305    1.345028
H      3.171057    1.908026    1.541786
H      5.350028    0.789936    1.180679
H      5.458647   -1.359306   -0.058637
H      3.387489   -2.392976   -0.938571
H     -3.736404   -2.123498   -1.781336
