61
 xtb: 6.6.1 (8d0f1dd)
C     -3.255600   -0.780000    4.438200
C     -3.568300   -0.777300    2.979200
C     -2.718700   -0.133900    2.078800
C     -2.964000   -0.128200    0.721300
C     -4.099300   -0.774300    0.193700
C     -5.000600   -1.368700    1.116400
C     -4.703300   -1.379100    2.480200
O     -6.143400   -1.970500    0.769000
C     -4.416500   -0.921600   -1.230100
O     -5.559400   -1.228000   -1.587800
O     -3.555200   -0.904000   -2.241900
C     -2.256800   -0.341300   -2.434500
C     -1.654100   -1.142400   -3.609300
C     -0.241100   -0.707300   -3.866300
C      0.471800   -0.004700   -3.005400
C     -0.009400    0.424300   -1.649500
C     -1.336800   -0.252800   -1.227500
C     -2.001300    0.639300   -0.152200
O     -2.633000    1.729600   -0.799200
C     -0.878700   -1.588700   -0.616100
C      0.457800   -1.257500   -0.043800
C      1.167300   -1.939500    0.906400
C      2.421700   -1.455300    1.315300
C      2.941700   -0.265400    0.756000
C      2.195500    0.425700   -0.236300
C      0.965000   -0.080600   -0.620600
C      2.705200    1.675200   -0.824100
O      2.097700    2.278400   -1.702900
C      3.988400    2.188100   -0.313100
C      4.724900    1.484000    0.658200
C      4.227800    0.233000    1.209600
O      4.897100   -0.391600    2.067100
C      5.959200    2.017900    1.090200
C      6.415200    3.230200    0.552000
C      5.677500    3.903500   -0.393700
C      4.465600    3.383200   -0.829600
O      6.734100    1.427200    1.999200
O      3.057500   -2.165800    2.242300
O     -1.667800   -2.538600   -3.382400
H     -3.933900   -1.432100    4.979300
H     -3.347400    0.228500    4.837600
H     -2.232300   -1.109400    4.602800
H     -1.839900    0.366900    2.456100
H     -5.410600   -1.870200    3.129400
H     -6.294400   -1.859400   -0.200200
H     -2.418000    0.686500   -2.787900
H     -2.262800   -0.920500   -4.499000
H      0.172800   -1.021000   -4.811300
H      1.477100    0.306400   -3.245700
H     -0.090400    1.515300   -1.643400
H     -1.195300    1.017100    0.495600
H     -2.926500    2.369200   -0.136400
H     -1.568500   -1.987300    0.125700
H     -0.760100   -2.331100   -1.409400
H      0.800400   -2.845400    1.360700
H      7.360700    3.606900    0.907700
H      6.040700    4.834300   -0.798300
H      3.872300    3.891800   -1.573700
H      6.308300    0.586600    2.300700
H      3.926400   -1.736800    2.452400
H     -2.586500   -2.838600   -3.349500
