61

C     -4.018759   -0.935318    4.499511
C     -4.093290   -0.898615    3.001076
C     -3.039836   -0.357578    2.249501
C     -3.095358   -0.286728    0.841396
C     -4.247409   -0.778046    0.199968
C     -5.326577   -1.261600    0.955288
C     -5.246842   -1.331052    2.342699
O     -6.503440   -1.688231    0.396251
C     -4.370229   -0.824249   -1.268171
O     -5.415529   -0.602436   -1.859626
O     -3.308494   -1.457562   -1.814264
C     -2.249873   -0.572235   -2.214717
C     -1.632530   -1.144878   -3.509762
C     -0.285991   -0.580565   -3.813573
C      0.437271    0.130956   -2.937309
C      0.012873    0.412476   -1.516744
C     -1.258404   -0.390672   -1.043314
C     -1.961430    0.402239    0.109094
O     -2.521892    1.617886   -0.394550
C     -0.684137   -1.726897   -0.488839
C      0.651358   -1.290816    0.037254
C      1.447856   -1.978449    0.935573
C      2.679080   -1.429386    1.278842
C      3.110867   -0.205243    0.727384
C      2.293764    0.487731   -0.177051
C      1.061013   -0.073975   -0.530391
C      2.741320    1.794260   -0.712004
O      1.996342    2.485234   -1.395512
C      4.095481    2.289378   -0.395748
C      4.916382    1.590220    0.485383
C      4.431844    0.342194    1.096913
O      5.137648   -0.249707    1.912608
C      6.192300    2.090310    0.779977
C      6.642663    3.272725    0.196770
C      5.819629    3.970228   -0.685146
C      4.546574    3.481960   -0.980923
O      7.061346    1.471431    1.637272
O      3.422561   -2.153028    2.173408
O     -1.487171   -2.560353   -3.445815
H     -4.607258   -1.767492    4.899927
H     -4.401140    0.001515    4.916287
H     -2.985999   -1.077528    4.834762
H     -2.167363    0.027220    2.777316
H     -6.093859   -1.717570    2.905099
H     -6.542512   -1.375942   -0.533587
H     -2.669714    0.406520   -2.490940
H     -2.313285   -0.938386   -4.343893
H      0.106415   -0.764756   -4.810536
H      1.394702    0.536450   -3.260073
H     -0.163175    1.486042   -1.405512
H     -1.210453    0.697572    0.853379
H     -1.880253    2.334581   -0.242395
H     -1.299205   -2.172417    0.297341
H     -0.512894   -2.479324   -1.261174
H      1.131231   -2.927910    1.358410
H      7.635393    3.649723    0.432385
H      6.169489    4.894351   -1.140110
H      3.909043    4.035521   -1.668986
H      6.626252    0.666401    1.995033
H      4.267233   -1.678155    2.336762
H     -2.343630   -2.898021   -3.122205
