58

C      7.035639   -0.173952    1.522387
C      7.007967    0.973155    0.514555
C      5.926082    2.012279    0.788617
C      4.578572    1.451585    0.442892
C      4.465433    0.520954   -0.591724
C      3.198013    0.024590   -0.944724
C      2.017682    0.436384   -0.263602
C      2.156434    1.384155    0.776350
C      3.427164    1.884507    1.109143
C      1.024946    1.834252    1.480085
C     -0.258755    1.361825    1.185371
C     -0.433381    0.419727    0.155197
C      0.703668   -0.026788   -0.551115
O      0.495837   -0.952123   -1.555409
C     -1.776957   -0.099430   -0.180454
C     -2.555955    0.513800   -1.189416
C     -3.819450    0.002313   -1.501238
C     -4.316854   -1.121905   -0.827192
C     -3.561390   -1.737459    0.167561
C     -2.296227   -1.225902    0.492815
O     -1.521389   -1.800910    1.476534
C     -4.101590   -2.916273    0.867229
O     -3.464429   -3.476989    1.752914
C     -5.433020   -3.414568    0.481793
C     -6.168404   -2.831255   -0.471671
C     -5.655400   -1.634972   -1.189493
O     -6.323657   -1.087535   -2.058722
C     -7.523256   -3.324415   -0.874966
O     -2.006995    1.617713   -1.796017
C     -2.634904    2.101446   -2.975293
O     -1.399784    1.771054    1.833689
C     -1.248614    2.573529    2.995083
O      3.048808   -0.886051   -1.975167
C      5.680933    0.082365   -1.323454
O      5.572179   -0.578186   -2.351299
O      6.887434    0.444312   -0.821935
H      6.117510   -0.769365    1.494496
H      7.176819    0.200079    2.540951
H      7.856253   -0.860552    1.287241
H      7.980636    1.477298    0.558336
H      5.966408    2.334792    1.835158
H      6.089558    2.892488    0.154519
H      3.522659    2.623458    1.904598
H      1.166829    2.570468    2.265301
H      1.373933   -1.157711   -1.935591
H     -4.440218    0.466060   -2.262570
H     -1.993853   -2.579299    1.843625
H     -5.779745   -4.287988    1.023879
H     -8.278753   -2.548978   -0.710907
H     -7.823761   -4.206544   -0.299459
H     -7.531255   -3.601814   -1.934196
H     -2.727077    1.314193   -3.730981
H     -3.608128    2.546574   -2.745145
H     -2.000277    2.889437   -3.392142
H     -0.848305    3.560076    2.740462
H     -2.241519    2.721338    3.430598
H     -0.627496    2.074750    3.746477
H      3.923399   -1.012193   -2.413976
