58
 xtb: 6.6.1 (8d0f1dd)
C      6.889800   -0.171100    1.337900
C      6.939000    1.082100    0.468800
C      5.870300    2.096700    0.860500
C      4.516800    1.548000    0.524500
C      4.412400    0.776000   -0.662400
C      3.167400    0.302800   -1.087700
C      2.007000    0.539100   -0.301400
C      2.140000    1.287300    0.900900
C      3.409100    1.788500    1.275900
C      1.021600    1.541100    1.705300
C     -0.224000    1.075000    1.348000
C     -0.375100    0.329600    0.156700
C      0.711900    0.062300   -0.658900
O      0.481600   -0.681000   -1.754700
C     -1.709500   -0.183900   -0.208100
C     -2.328700    0.235600   -1.390200
C     -3.592400   -0.265800   -1.718200
C     -4.236100   -1.163500   -0.883600
C     -3.629000   -1.598900    0.308200
C     -2.348600   -1.103800    0.638900
O     -1.699800   -1.500600    1.731200
C     -4.304000   -2.542300    1.177600
O     -3.801300   -2.957600    2.236500
C     -5.626700   -2.997500    0.764900
C     -6.236500   -2.600700   -0.364000
C     -5.568300   -1.647700   -1.281500
O     -6.106600   -1.286900   -2.322000
C     -7.587400   -3.070600   -0.771600
O     -1.655500    1.132300   -2.129500
C     -2.213000    1.579000   -3.355400
O     -1.364800    1.297900    2.038300
C     -1.289100    2.003300    3.264700
O      3.044500   -0.391000   -2.232200
C      5.608300    0.484400   -1.437600
O      5.572800    0.015600   -2.580600
O      6.809700    0.720400   -0.920100
H      5.894500   -0.609700    1.320000
H      7.144200    0.087700    2.360500
H      7.603000   -0.903700    0.969700
H      7.937200    1.527500    0.516800
H      5.946400    2.321400    1.922500
H      6.026900    3.022900    0.299700
H      3.484400    2.376200    2.176800
H      1.165900    2.115000    2.604900
H      1.307600   -0.800400   -2.262600
H     -4.105900    0.034200   -2.617900
H     -2.270700   -2.142100    2.229300
H     -6.103500   -3.695700    1.439000
H     -8.260600   -2.217500   -0.842600
H     -7.983300   -3.793900   -0.066900
H     -7.534200   -3.509800   -1.766500
H     -2.358800    0.746600   -4.046700
H     -3.159600    2.098300   -3.191100
H     -1.479500    2.270600   -3.762500
H     -0.924300    3.021500    3.109500
H     -2.309300    2.032000    3.640100
H     -0.649000    1.479600    3.978000
H      3.923100   -0.426900   -2.689100
