29
 xtb: 6.6.1 (8d0f1dd)
C      4.077100   -1.292000   -0.489300
C      2.930500   -0.341400   -0.304100
C      3.158100    1.020500   -0.259700
C      2.139300    1.995300   -0.092500
O      2.349100    3.242100   -0.053300
C      0.817300    1.425700    0.034900
C     -0.439400    1.986100    0.195500
N     -1.348500    1.013500    0.235500
C     -2.749200    1.127500    0.563700
C     -3.523500   -0.052700   -0.013500
C     -2.859900   -1.345800    0.448900
C     -1.449200   -1.412300   -0.124500
N     -0.727300   -0.196400    0.166500
C      0.609300    0.015900   -0.006900
C      1.643300   -0.877600   -0.182500
H      5.017600   -0.754500   -0.574000
H      3.931000   -1.886300   -1.389700
H      4.139000   -1.974100    0.357100
H      4.168200    1.397300   -0.360000
H     -0.705300    3.020500    0.281200
H     -3.109700    2.077100    0.166700
H     -2.858300    1.141100    1.654300
H     -3.522800   -0.004200   -1.103100
H     -4.554400   -0.003100    0.331500
H     -2.821500   -1.372100    1.538400
H     -3.421500   -2.212300    0.105300
H     -1.492300   -1.556000   -1.211300
H     -0.885200   -2.239400    0.309400
H      1.488200   -1.942200   -0.224300
