37

C     -5.230104   -0.232882    0.751327
C     -3.710880   -0.186208    0.604175
C     -3.206235   -1.356606   -0.250657
C     -1.699806   -1.323223   -0.308614
C     -1.018221   -0.091666   -0.291508
C     -1.830723    1.134015   -0.495386
O     -1.374364    2.061136   -1.159516
C     -3.265486    1.143824   -0.009666
C      0.381929   -0.058447   -0.245127
C      1.098188   -1.248142   -0.387314
C      0.425202   -2.473381   -0.472235
C     -0.967784   -2.512299   -0.405179
C      2.572694   -1.222238   -0.485154
O      3.217636   -2.263173   -0.569710
C      3.272392    0.075640   -0.526370
C      2.562314    1.245313   -0.261502
C      1.134105    1.167992    0.091313
O      0.623633    2.057585    0.759770
C      3.209342    2.486737   -0.275685
C      4.571089    2.555734   -0.572421
C      5.286454    1.387680   -0.839929
C      4.640776    0.153026   -0.810140
O      5.412715   -0.947502   -1.067354
H     -5.544379   -1.164696    1.233117
H     -5.585615    0.599909    1.367157
H     -5.727708   -0.171678   -0.222493
H     -3.271982   -0.267819    1.608774
H     -3.607911   -1.306324   -1.270055
H     -3.539805   -2.301361    0.195755
H     -3.376552    1.952140    0.721410
H     -3.892099    1.378705   -0.879203
H      0.983648   -3.402823   -0.577187
H     -1.476504   -3.474260   -0.447651
H      2.654501    3.397612   -0.055412
H      5.076681    3.518673   -0.588419
H      6.349252    1.437705   -1.064882
H      4.853608   -1.748698   -0.950193
