46
 xtb: 6.6.1 (8d0f1dd)
C      7.881400   -0.914000   -1.879000
C      6.501100   -0.979700   -1.352000
C      5.685200    0.077000   -1.246300
C      4.340500    0.007900   -0.734500
C      3.509600    1.084900   -0.641000
C      2.189700    0.966200   -0.112600
C      1.305200    2.009900   -0.049700
C     -0.011600    1.857600    0.452400
O     -0.912400    2.691300    0.338900
C     -0.302500    0.577100    1.261200
C      0.484700   -0.646300    0.821100
O      0.036200   -1.771600    0.962900
C      1.820600   -0.371400    0.299200
C      2.711400   -1.385400    0.138100
O      3.931000   -1.233800   -0.337100
C      0.021000    0.852800    2.735600
O     -1.702400    0.293100    1.177200
C     -2.122200    0.008900   -0.052400
O     -1.297500   -0.070700   -0.975500
C     -3.547100   -0.219600   -0.217600
C     -3.993000   -0.745900   -1.458400
C     -5.336800   -1.020400   -1.664300
C     -6.267500   -0.760400   -0.670000
C     -5.837100   -0.215500    0.540300
C     -4.506400    0.057900    0.784200
C     -4.147300    0.666300    2.101100
O     -7.559500   -1.034600   -0.918700
O     -3.165500   -1.015500   -2.481000
H      8.152300    0.098100   -2.164400
H      8.580400   -1.277400   -1.127100
H      7.976100   -1.570200   -2.743100
H      6.152100   -1.954700   -1.039900
H      6.011500    1.058800   -1.553200
H      3.851200    2.051500   -0.969600
H      1.559300    2.969800   -0.470500
H      2.472900   -2.404100    0.413200
H      1.078300    1.075000    2.843000
H     -0.238100   -0.022000    3.326500
H     -0.568100    1.703200    3.068900
H     -5.648300   -1.428100   -2.611200
H     -6.562800    0.004000    1.308500
H     -5.045900    0.918900    2.656000
H     -3.550100   -0.027200    2.688900
H     -3.553700    1.566300    1.954600
H     -8.124800   -0.798000   -0.164500
H     -2.251300   -0.742200   -2.238300
