42

O      7.803213   -1.360824    1.409894
C      6.608741   -0.919403    0.915054
C      5.510257   -0.964339    1.770933
C      4.284194   -0.512809    1.267689
N      3.053036   -0.439546    1.875539
C      2.124636    0.069408    1.007273
C      2.753856    0.335180   -0.189531
C      2.155618    0.888614   -1.365681
C      0.857136    1.095589   -1.623361
C      0.411555    1.690247   -2.920491
N     -0.935638    1.713909   -2.786787
C     -1.249964    1.198554   -1.570170
C     -2.708175    1.128856   -1.192043
C     -3.233403    0.149004   -0.244827
C     -2.530438   -0.882441    0.354063
N     -3.381455   -1.579360    1.169146
C     -4.641087   -1.034535    1.116145
C     -4.583449    0.049497    0.238275
C     -5.767712    0.784199    0.011440
C     -6.950711    0.413647    0.661268
C     -6.971197   -0.673251    1.530293
C     -5.815319   -1.419281    1.774925
O     -3.427137    1.942788   -1.775539
N     -0.245638    0.823000   -0.835841
O      1.086149    2.058346   -3.859764
C      4.130560   -0.029712   -0.034112
C      5.267586    0.000208   -0.872976
C      6.503383   -0.447430   -0.387632
H      8.476421   -1.267904    0.716267
H      5.610829   -1.335014    2.785050
H      2.868078   -0.717361    2.829202
H      1.099590    0.203097    1.325926
H      2.853318    1.172400   -2.152502
H     -1.589666    2.077517   -3.463043
H     -1.493478   -1.185091    0.276605
H     -3.127194   -2.381781    1.729367
H     -5.767505    1.635949   -0.664179
H     -7.860031    0.982589    0.483420
H     -7.899787   -0.946258    2.026529
H     -5.835491   -2.266083    2.453328
H      5.190239    0.367107   -1.892240
H      7.366079   -0.417281   -1.045793
