52

C     10.721282    0.550427    2.249443
C      9.294202    0.131318    2.394516
C      8.319182    0.499963    1.550436
C      6.944461    0.082725    1.710714
C      5.968494    0.450591    0.866840
C      4.593616    0.031553    1.030893
C      3.616299    0.396089    0.188017
C      2.227390   -0.072700    0.422951
O      1.904705   -0.779917    1.372841
C      1.228370    0.373220   -0.581637
C     -0.074874    0.049845   -0.482003
O     -0.556292   -0.722066    0.563362
C     -1.097667    0.466485   -1.428007
C     -2.375361    0.085088   -1.560453
C     -3.156760   -0.849626   -0.780228
C     -4.487510   -0.694334   -0.666479
C     -5.387940   -1.629064    0.097125
C     -6.508833   -0.860857    0.818875
C     -6.024630   -0.090174    2.057618
O     -5.515279   -0.974686    3.050458
O     -7.229412    0.026048   -0.062841
C     -6.450032    0.715392   -0.962372
C     -5.169155    0.448396   -1.254894
C     -4.418726    1.344621   -2.202248
O     -4.892767    2.412774   -2.585337
C     -3.054940    0.804788   -2.678808
C     -3.285387   -0.085783   -3.907268
O     -2.122147    1.803006   -3.051516
C     -0.939513    1.561189   -2.422669
O      0.084735    2.182645   -2.649708
H     11.039717    1.101582    3.139524
H     10.878665    1.191626    1.376410
H     11.359585   -0.332128    2.144201
H      9.070843   -0.508769    3.245278
H      8.554377    1.140963    0.702987
H      6.717588   -0.557216    2.561566
H      6.199254    1.091060    0.017779
H      4.365327   -0.607168    1.883952
H      3.807961    1.031311   -0.668541
H      1.611751    0.970110   -1.399709
H      0.192840   -0.942968    1.162996
H     -2.647927   -1.661305   -0.266168
H     -5.848034   -2.309690   -0.632093
H     -4.822042   -2.247312    0.803127
H     -7.237346   -1.606467    1.162061
H     -6.843044    0.494356    2.493139
H     -5.235684    0.624472    1.802096
H     -6.277699   -1.381711    3.497827
H     -7.017021    1.523830   -1.411443
H     -2.343888   -0.511677   -4.274055
H     -3.979685   -0.908667   -3.706389
H     -3.701051    0.505423   -4.732163
