39
 xtb: 6.6.1 (8d0f1dd)
C     -3.087900    2.168500    1.340200
O     -2.257900    2.737700    0.340900
C     -1.395000    2.001700   -0.383700
C     -0.769000    2.666400   -1.418900
C      0.174000    2.042300   -2.239800
C      0.510700    0.723800   -2.076900
C     -0.105200   -0.011700   -1.034200
N      0.168200   -1.307900   -0.897400
C     -0.348600   -1.966800    0.134800
C     -0.062200   -3.344800    0.302400
C     -0.586800   -4.023900    1.361400
C     -1.396400   -3.368700    2.309600
C     -1.699800   -2.035300    2.191400
C     -1.206100   -1.301300    1.071100
N     -1.578800   -0.043300    0.865900
C     -1.049700    0.630800   -0.149300
C     -2.476700   -1.349800    3.248800
O     -2.372700   -0.175800    3.537600
O     -3.299200   -2.168400    3.891900
C      1.573400    0.075500   -2.917300
O      2.819600    0.802600   -2.856400
C      3.406500    0.929900   -1.685400
O      2.988500    0.491800   -0.632900
C      4.707400    1.700400   -1.770900
O      5.312600    1.816000   -0.510500
H     -3.727700    1.391900    0.918600
H     -2.507800    1.739000    2.157500
H     -3.692400    2.998900    1.699200
H     -1.021200    3.702800   -1.573700
H      0.648300    2.618500   -3.019700
H      0.587000   -3.814700   -0.418400
H     -0.371700   -5.071700    1.497000
H     -1.770600   -3.918900    3.158800
H     -3.793400   -1.711100    4.600300
H      1.730500   -0.946600   -2.565400
H      1.317500    0.087900   -3.977000
H      4.502900    2.698400   -2.175600
H      5.382100    1.178200   -2.459600
H      4.747400    1.357300    0.135700
