75

C      6.906865   -1.877165   -1.060145
C      8.246636   -1.500248   -0.936032
C      8.557389   -0.220151   -0.490510
C      7.551909    0.684329   -0.174984
C      6.212904    0.302277   -0.297418
C      5.875293   -0.986289   -0.729522
C      4.483000   -1.426937   -0.906176
C      3.458650   -1.066390   -0.116347
C      2.077171   -1.507865   -0.288548
C      0.992476   -1.021008    0.368070
C     -0.364657   -1.535698   -0.001541
C     -1.559472   -0.907841    0.639304
C     -1.426179    0.230705    1.343850
O     -2.534519    0.804081    1.959581
C     -0.140250    0.985314    1.550404
C      1.074500    0.064555    1.389162
O      2.040675    0.209293    2.143579
C     -0.013068    2.296456    0.713794
C     -0.298596    2.119978   -0.786549
C     -0.234259    3.473809   -1.507473
C     -1.134604    4.510315   -0.828434
C     -0.764342    4.590545    0.663411
O     -0.923554    3.286072    1.254783
C     -1.650413    5.575017    1.439776
O     -1.175066    6.907764    1.301092
O     -0.999660    5.757945   -1.502193
O     -0.620355    3.309000   -2.887912
O      0.639489    1.225961   -1.377451
O     -0.160206    1.370691    2.953990
C     -2.893972   -1.586251    0.422035
C     -3.379737   -1.493744   -1.040164
C     -4.715066   -2.232059   -1.159854
C     -4.584833   -3.671868   -0.664456
C     -4.020151   -3.676526    0.767946
O     -2.786614   -2.952741    0.854551
C     -3.756072   -5.109280    1.256867
O     -4.924426   -5.916673    1.139078
O     -5.884984   -4.271905   -0.746690
O     -5.147273   -2.207196   -2.529674
O     -3.561335   -0.133136   -1.462962
O     -0.490294   -2.458037   -0.808741
O      1.981046   -2.510831   -1.249895
O      9.848580    0.192128   -0.345757
H      6.673436   -2.880592   -1.404943
H      9.021034   -2.217080   -1.188250
H      7.805680    1.684347    0.166120
H      5.441386    1.028126   -0.056042
H      4.321222   -2.126477   -1.727163
H      3.675220   -0.394411    0.706236
H     -2.178729    1.518634    2.541724
H      1.008371    2.676044    0.857067
H     -1.297335    1.696768   -0.947243
H      0.803048    3.836081   -1.539907
H     -2.179523    4.194925   -0.939635
H      0.279089    4.912472    0.774993
H     -1.644488    5.328383    2.507933
H     -2.688604    5.529356    1.095412
H     -1.861213    7.500909    1.660048
H     -0.900805    5.569723   -2.455961
H     -1.518164    2.927061   -2.911040
H      0.606851    1.379520   -2.345619
H      0.781184    1.381912    3.241232
H     -3.646105   -1.110886    1.061673
H     -2.670663   -1.945654   -1.741368
H     -5.496806   -1.704064   -0.598874
H     -3.928546   -4.231839   -1.341886
H     -4.755336   -3.225670    1.447637
H     -2.948586   -5.571772    0.676249
H     -3.440274   -5.096561    2.307083
H     -4.707026   -6.778177    1.539481
H     -5.843902   -5.086943   -0.197273
H     -5.870072   -2.868883   -2.569359
H     -4.122050   -0.205478   -2.264989
H      1.044294   -2.799462   -1.325460
H     10.434784   -0.546708   -0.578558
