40

C     -2.942974   -0.378974    1.583716
C     -4.069045    0.491782    0.990816
N     -4.370985    0.020740   -0.363658
C     -3.389624   -0.490241   -1.200923
C     -2.144290   -0.764786   -0.769482
C     -1.765804   -0.571465    0.629047
C     -0.508264   -0.568657    1.105842
C      0.726623   -0.721268    0.307002
N      1.882218   -0.723971    0.879569
C      3.017964   -0.878328   -0.058665
C      4.278443   -0.359503    0.652789
C      4.189107    1.110675    1.056004
C      4.146956    2.009950   -0.145238
O      3.150246    2.367530   -0.749901
O      5.372324    2.382438   -0.559685
C      3.168487   -2.353687   -0.452495
O      2.331994   -3.238111   -0.347854
O      4.344216   -2.627068   -1.057624
C     -3.689096   -0.697171   -2.654474
O     -2.945053   -1.146901   -3.506875
O     -4.946083   -0.301183   -2.949002
C     -3.719826    1.985604    0.985851
O     -3.946431    2.789164    0.092486
O     -3.184323    2.422003    2.146285
H     -3.354726   -1.376013    1.796621
H     -2.607053    0.024947    2.546162
H     -4.972619    0.386960    1.602582
H     -5.186412    0.395217   -0.848844
H     -1.403950   -1.129484   -1.475238
H     -0.322543   -0.436120    2.168643
H      0.610273   -0.824363   -0.784092
H      2.844614   -0.313571   -0.983138
H      4.459014   -0.958695    1.554800
H      5.154525   -0.498652    0.007220
H      3.312032    1.319337    1.677722
H      5.059556    1.384877    1.664146
H      5.199593    2.945133   -1.343402
H      4.272412   -3.581330   -1.271647
H     -5.016477   -0.475337   -3.909724
H     -3.035021    3.378524    1.984659
