40
 xtb: 6.6.1 (8d0f1dd)
C     -2.925900   -0.481900    1.588700
C     -4.079500    0.353900    1.020700
N     -4.485800   -0.198900   -0.248000
C     -3.481500   -0.445700   -1.143300
C     -2.180300   -0.607100   -0.766400
C     -1.787000   -0.544400    0.602400
C     -0.504900   -0.577200    1.050800
C      0.669500   -0.660700    0.242900
N      1.819100   -0.672700    0.793000
C      2.991000   -0.807400   -0.027100
C      4.220600   -0.340300    0.755200
C      4.180000    1.177400    0.988400
C      4.406500    1.917400   -0.301300
O      3.626100    1.958200   -1.231900
O      5.583400    2.517100   -0.340600
C      3.103600   -2.248100   -0.517100
O      2.143500   -2.935400   -0.789900
O      4.345100   -2.669400   -0.645400
C     -3.839200   -0.552100   -2.569100
O     -3.047500   -0.809200   -3.458100
O     -5.126800   -0.328300   -2.806600
C     -3.629400    1.809100    0.859000
O     -3.639600    2.400500   -0.198000
O     -3.244500    2.342000    1.997400
H     -3.291300   -1.496900    1.758800
H     -2.597800   -0.062700    2.537800
H     -4.925000    0.338200    1.713900
H     -5.338300    0.165600   -0.650600
H     -1.456800   -0.796200   -1.541700
H     -0.317600   -0.539600    2.114100
H      0.551800   -0.698300   -0.846000
H      2.897700   -0.218100   -0.958800
H      4.216500   -0.839300    1.722800
H      5.127200   -0.613800    0.216500
H      3.197000    1.436900    1.382000
H      4.958900    1.465600    1.691500
H      5.751000    2.982800   -1.183300
H      4.400200   -3.591600   -0.969500
H     -5.344700   -0.398500   -3.755800
H     -2.945300    3.268900    1.912700
