96
 xtb: 6.6.1 (8d0f1dd)
C     -5.867500    0.618000    1.274200
C     -5.763100    0.363700   -0.197200
C     -4.564700    0.264700   -0.842900
C     -3.296500    0.369300   -0.231700
C     -2.120100    0.233800   -0.912600
C     -0.856800    0.319600   -0.300700
C      0.328300    0.159600   -0.969700
C      1.573600    0.230900   -0.329500
C      2.823200    0.055300   -0.890900
C      3.035900   -0.233000   -2.343900
C      3.940700    0.142000   -0.035500
C      5.268500   -0.035800   -0.334900
C      6.371800    0.046000    0.546100
C      7.517900   -0.220400   -0.162300
C      7.096100   -0.470700   -1.533600
O      7.743000   -0.744800   -2.535300
O      5.742800   -0.349300   -1.595600
C      8.867600   -0.246900    0.323300
C      9.936200   -0.552200   -0.418700
C     11.317800   -0.558600    0.131400
C     11.873000   -1.829800    0.642900
O     11.397900   -0.831200    1.524500
C     13.371500   -2.052800    0.670100
C     14.112400   -0.718800    0.776000
C     13.705700    0.162900   -0.400500
C     12.224400    0.574100   -0.390300
C     12.006900    1.788600    0.520200
C     11.840000    0.955800   -1.824100
O     15.515300   -0.885800    0.714500
C     11.063600   -3.105600    0.560500
C     -6.981200    0.208900   -0.951100
C     -8.182900    0.230500   -0.420500
C     -9.359600    0.245100    0.123500
C    -10.103800    1.568900    0.296900
C    -11.573900    1.392800   -0.118600
C    -12.205300    0.231200    0.638600
C    -11.486400   -1.067600    0.306400
C     -9.993900   -1.030400    0.664900
C     -9.322000   -2.258300    0.041200
C     -9.792700   -1.079000    2.184700
O    -13.581000    0.062200    0.241300
C    -14.504200    0.839400    0.789800
O    -14.255900    1.700400    1.610200
C    -15.875100    0.520600    0.272200
C     -9.467100    2.670700   -0.557300
O    -10.008600    1.905900    1.674600
H     -5.308000    1.509500    1.550300
H     -5.458300   -0.221900    1.834100
H     -6.906300    0.754700    1.563900
H     -4.570100    0.079300   -1.909700
H     -3.254200    0.556300    0.832000
H     -2.149000    0.041900   -1.977500
H     -0.830200    0.515400    0.763700
H      0.287000   -0.040100   -2.030700
H      1.543300    0.435800    0.733800
H      3.732900    0.487100   -2.768700
H      2.110100   -0.197600   -2.906200
H      3.485000   -1.217800   -2.466100
H      3.750900    0.369600    1.004400
H      6.299700    0.276600    1.590300
H      9.001900   -0.004900    1.370300
H      9.824400   -0.813200   -1.459800
H     13.677100   -2.563800   -0.244900
H     13.614100   -2.691900    1.522800
H     13.836900   -0.229200    1.722300
H     14.330800    1.056600   -0.396400
H     13.929000   -0.392200   -1.313800
H     10.957900    2.076700    0.506600
H     12.606600    2.627800    0.178600
H     12.278800    1.549000    1.545000
H     10.832100    1.361200   -1.865700
H     11.892500    0.093300   -2.483800
H     12.531400    1.711500   -2.188500
H     15.806200   -1.442600    1.449300
H     11.315300   -3.757800    1.393500
H     11.286700   -3.617000   -0.372200
H     10.000700   -2.882100    0.596300
H     -6.880400    0.058900   -2.019000
H    -12.126500    2.310500    0.098400
H    -11.629500    1.195900   -1.190200
H    -12.188500    0.443200    1.714200
H    -11.967000   -1.891200    0.836100
H    -11.600500   -1.244600   -0.765100
H     -8.269600   -2.293400    0.308800
H     -9.802100   -3.164000    0.402500
H     -9.399900   -2.230900   -1.042600
H     -8.733100   -1.165200    2.412300
H    -10.308700   -1.940200    2.602300
H    -10.165500   -0.176900    2.659400
H    -15.829300   -0.333700   -0.394000
H    -16.263200    1.389100   -0.254100
H    -16.534200    0.319100    1.112300
H     -9.438900    2.372600   -1.600700
H    -10.046600    3.587500   -0.470100
H     -8.451800    2.860100   -0.218700
H    -10.331600    2.807700    1.804000
