96

C     -5.963181    1.480794    1.022052
C     -5.788570    1.098521   -0.430119
C     -4.604586    0.898104   -1.046652
C     -3.282970    0.993393   -0.460442
C     -2.168252    0.653225   -1.126266
C     -0.848009    0.717901   -0.535837
C      0.259383    0.304776   -1.172810
C      1.575300    0.370523   -0.568829
C      2.745037   -0.065559   -1.086805
C      2.884860   -0.728710   -2.436151
C      3.960310    0.126684   -0.286697
C      5.224484   -0.241580   -0.550174
C      6.338500    0.016715    0.294345
C      7.447096   -0.469823   -0.255551
C      7.000305   -1.077832   -1.529801
O      7.716495   -1.640991   -2.342641
O      5.644500   -0.917627   -1.682147
C      8.778662   -0.378871    0.280997
C      9.900492   -0.867828   -0.270653
C     11.266461   -0.707525    0.288906
C     11.975129   -1.967720    0.836046
O     11.478746   -0.955083    1.704480
C     13.474943   -2.063683    0.819291
C     14.168400   -0.707081    0.743064
C     13.595156    0.111154   -0.408069
C     12.107052    0.499276   -0.219011
C     11.987016    1.675890    0.776735
C     11.612615    1.015121   -1.593451
O     15.561617   -0.904686    0.500872
C     11.252526   -3.276549    0.986899
C     -7.013218    0.927200   -1.206289
C     -8.183543    0.739004   -0.666152
C     -9.341821    0.505578   -0.095817
C    -10.270031    1.646737    0.326164
C    -11.746466    1.280436    0.115598
C    -12.103785   -0.046558    0.784405
C    -11.236743   -1.162966    0.205156
C     -9.719557   -0.919478    0.371443
C     -9.002632   -2.004416   -0.472611
C     -9.295187   -1.138889    1.839889
O    -13.478507   -0.380622    0.494030
C    -14.412343    0.162087    1.324007
O    -14.188384    0.937754    2.242708
C    -15.778651   -0.310302    0.933137
C     -9.985908    2.972131   -0.405253
O    -10.046464    1.884294    1.719097
H     -5.023862    1.656508    1.546067
H     -6.480748    0.691528    1.573213
H     -6.544109    2.406220    1.105564
H     -4.610310    0.610509   -2.098222
H     -3.199892    1.341740    0.565217
H     -2.232433    0.295435   -2.153883
H     -0.784134    1.115658    0.477821
H      0.167533   -0.098094   -2.177738
H      1.583150    0.828966    0.421540
H      3.548863   -0.147063   -3.084005
H      1.940654   -0.826013   -2.973920
H      3.284687   -1.741852   -2.327585
H      3.798897    0.651221    0.656433
H      6.281074    0.543594    1.233749
H      8.872544    0.156880    1.225672
H      9.853496   -1.411467   -1.211238
H     13.785386   -2.682776   -0.033111
H     13.829988   -2.593087    1.712857
H     14.072858   -0.161100    1.687632
H     14.207093    1.011263   -0.561232
H     13.711345   -0.474057   -1.332698
H     10.938746    1.959374    0.926128
H     12.525104    2.558221    0.413679
H     12.394310    1.426523    1.760437
H     10.598991    1.426930   -1.534907
H     11.606714    0.214373   -2.341173
H     12.259988    1.814912   -1.969988
H     15.931068   -1.358455    1.277330
H     11.687611   -3.858903    1.807386
H     11.347198   -3.868183    0.070936
H     10.187813   -3.150698    1.208949
H     -6.926462    0.817654   -2.282025
H    -12.393613    2.065604    0.526560
H    -11.983300    1.224311   -0.957362
H    -11.960462    0.000892    1.870993
H    -11.525132   -2.117396    0.666520
H    -11.483936   -1.279632   -0.859830
H     -7.913556   -1.971177   -0.345283
H     -9.330526   -3.010244   -0.179898
H     -9.219047   -1.885476   -1.542010
H     -8.218704   -0.973729    1.968849
H     -9.508084   -2.166158    2.161279
H     -9.812930   -0.473443    2.537458
H    -15.763880   -1.388502    0.760337
H    -16.105955    0.215716    0.034885
H    -16.482712   -0.110886    1.744813
H    -10.031322    2.855077   -1.493877
H    -10.717438    3.736421   -0.114008
H     -9.004116    3.379319   -0.135104
H    -10.654722    2.585597    2.005696
