55
 xtb: 6.6.1 (8d0f1dd)
O      2.815900    1.968100   -1.826700
C      1.686200    1.711600   -1.202000
C      0.516300    1.496800   -1.891000
C     -0.819600    1.176100   -1.469500
C     -1.372500    0.730600   -0.326600
C     -2.721200    0.223500   -0.338800
C     -3.383400   -0.031500   -1.565300
C     -2.773100    0.303000   -2.842700
C     -1.677200    1.349500   -2.697400
O     -0.771900    1.393300   -3.807300
C      0.474800    1.555900   -3.348400
O      1.425900    1.725200   -4.101200
C     -2.415300    2.705900   -2.627200
O     -3.135800   -0.129100   -3.924400
C     -4.628100   -0.668100   -1.516500
N     -5.243100   -1.008100   -0.411100
C     -4.633800   -0.762500    0.764000
C     -5.316700   -1.153600    1.978100
C     -6.509100   -1.756800    1.993300
C     -7.230200   -2.168300    3.220400
C     -3.374100   -0.159600    0.826900
C      1.793600    1.679700    0.284600
C      2.049500    0.249800    0.799000
C      3.354000   -0.371000    0.299100
C      4.601800    0.384800    0.751700
C      5.902600   -0.299000    0.325400
C      6.171200   -1.658600    0.974400
C      6.318200   -1.584500    2.490300
H      2.705600    1.966300   -2.807300
H     -0.820100    0.654300    0.593300
H     -1.682500    3.504100   -2.534500
H     -3.085500    2.722600   -1.773400
H     -2.983100    2.847600   -3.543500
H     -5.143200   -0.882000   -2.444700
H     -4.802100   -0.930600    2.902500
H     -6.991300   -1.965100    1.048700
H     -7.414600   -3.241300    3.196600
H     -8.201700   -1.677400    3.257900
H     -6.667300   -1.919900    4.115800
H     -2.904200    0.001500    1.784400
H      2.626300    2.317600    0.576700
H      0.873900    2.061100    0.724100
H      1.223100   -0.392400    0.490600
H      2.067500    0.287700    1.888800
H      3.395100   -1.393700    0.677400
H      3.345700   -0.426500   -0.791500
H      4.585500    0.501600    1.836100
H      4.598600    1.380300    0.305600
H      5.888900   -0.427800   -0.759900
H      6.735700    0.366300    0.565500
H      7.096300   -2.056500    0.549900
H      5.373900   -2.358700    0.719500
H      5.379500   -1.307000    2.961600
H      6.621300   -2.551200    2.885800
H      7.073500   -0.850600    2.762700
