40

C      1.373450   -2.521616    2.171643
O      1.729854   -1.159478    1.950402
C      0.896395   -0.475088    1.068073
C      1.431736    0.310571    0.117220
C      0.565063    1.106071   -0.796949
O      1.055737    1.915381   -1.579904
C     -0.913286    0.881595   -0.747474
C     -1.449323    0.112548    0.216480
C     -0.588301   -0.546799    1.238030
O     -1.087743   -1.144943    2.187525
C     -2.916040   -0.071993    0.289664
C     -3.649682    0.506822    1.334089
C     -5.033809    0.335734    1.405300
C     -5.695837   -0.414433    0.434978
C     -4.975966   -0.996779   -0.606708
C     -3.591559   -0.828284   -0.679686
O     -1.745558    1.537477   -1.652289
C     -1.329112    1.455033   -3.012867
C      2.901822    0.413999   -0.019933
C      3.562116    1.600181    0.328010
C      4.949183    1.700582    0.201061
C      5.687364    0.618139   -0.274295
C      5.040877   -0.565493   -0.625753
C      3.653736   -0.668228   -0.500919
H      2.284191   -3.062405    2.446590
H      0.676494   -2.604127    3.009926
H      0.961932   -2.992033    1.271848
H     -3.148685    1.088515    2.104694
H     -5.593803    0.785501    2.221128
H     -6.773109   -0.547231    0.492880
H     -5.492843   -1.582985   -1.361972
H     -3.046999   -1.290164   -1.499279
H     -0.663305    2.285970   -3.260915
H     -2.221338    1.550127   -3.639271
H     -0.857998    0.493032   -3.242823
H      3.001301    2.457833    0.692859
H      5.452033    2.625919    0.470033
H      6.766807    0.698772   -0.373324
H      5.617148   -1.408478   -0.997928
H      3.167055   -1.599243   -0.780145
