40
 xtb: 6.6.1 (8d0f1dd)
C      1.277300   -2.070200    2.871600
O      1.698800   -1.286400    1.764400
C      0.863800   -0.694500    0.907300
C      1.422900    0.082600   -0.068500
C      0.620800    0.793700   -1.045900
O      1.132400    1.455000   -1.946800
C     -0.863200    0.677600   -0.921700
C     -1.421400   -0.119100    0.038600
C     -0.618000   -0.861800    0.991100
O     -1.125900   -1.607100    1.826000
C     -2.888600   -0.266800    0.148100
C     -3.525600   -0.047500    1.365900
C     -4.895800   -0.200900    1.475800
C     -5.645000   -0.579100    0.374600
C     -5.017000   -0.804200   -0.839600
C     -3.648300   -0.648800   -0.954100
O     -1.701100    1.331900   -1.729100
C     -1.285200    2.247700   -2.732200
C      2.890100    0.229900   -0.177900
C      3.465200    1.496400   -0.225900
C      4.836000    1.637900   -0.343700
C      5.647800    0.518900   -0.420200
C      5.081900   -0.745000   -0.379100
C      3.712700   -0.890300   -0.257700
H      2.203200   -2.332200    3.380000
H      0.624600   -1.505600    3.538500
H      0.753800   -2.970300    2.546200
H     -2.944700    0.250100    2.225900
H     -5.378400   -0.024600    2.425100
H     -6.713800   -0.700200    0.462500
H     -5.594900   -1.105200   -1.700000
H     -3.158900   -0.836100   -1.897400
H     -0.686100    3.057300   -2.313900
H     -2.216200    2.636700   -3.139900
H     -0.707300    1.748900   -3.511600
H      2.835300    2.371200   -0.164100
H      5.270100    2.625600   -0.376100
H      6.717100    0.631000   -0.513800
H      5.709000   -1.621000   -0.444900
H      3.272200   -1.875200   -0.237700
