55

C      4.783799   -2.298703    0.651860
C      3.983045   -1.062653    0.308483
N      4.646462    0.212401    0.320003
C      6.105003    0.305287    0.617514
C      6.959263    0.172848   -0.637827
O      8.282989    0.209581   -0.353013
O      6.600732    0.048692   -1.797387
C      3.908950    1.386849   -0.029073
C      4.599791    2.730219   -0.054133
C      2.597415    1.342619   -0.355597
C      2.671993   -1.138994   -0.009216
C      1.745630   -2.291902   -0.079088
C      0.447816   -1.678880   -0.505032
C     -0.590102   -2.495984   -0.680020
C     -1.966584   -2.168485   -1.066643
C     -2.456211   -0.786780   -1.065532
C     -1.832902    0.393281   -1.068707
O     -2.720826    1.497886   -1.097020
C     -3.937775    0.913498   -1.585952
C     -3.939762   -0.534066   -1.064918
O     -4.657408   -1.372934   -1.969429
C     -4.530014   -0.626901    0.353077
O     -4.747570   -1.997366    0.726841
C     -5.853799    0.134365    0.430395
O     -6.363904    0.018011    1.763158
C     -5.642766    1.596751    0.014695
C     -4.838352    2.436280    1.006566
O     -5.099990    1.693871   -1.298322
O     -2.724106   -3.092106   -1.358078
O      1.951618   -3.461380    0.172182
C      1.920285    0.064922   -0.361717
C      0.635763   -0.251449   -0.653259
C     -0.383359    0.735430   -1.079189
O     -0.063852    1.870210   -1.434069
H      5.077139   -2.275192    1.706493
H      5.682958   -2.362978    0.030479
H      4.244823   -3.234705    0.494568
H      6.409241   -0.472764    1.325938
H      6.344687    1.258578    1.101560
H      8.706573    0.116826   -1.234117
H      4.939760    3.007729    0.949459
H      3.938098    3.531111   -0.402535
H      5.459512    2.712678   -0.731196
H      2.059431    2.246091   -0.618662
H     -0.454374   -3.568622   -0.531186
H     -3.869537    0.915205   -2.683294
H     -4.503496   -2.290689   -1.646457
H     -3.835437   -0.228674    1.102741
H     -5.323407   -1.961022    1.517860
H     -6.580422   -0.347387   -0.235615
H     -7.264274    0.394373    1.761696
H     -6.633430    2.065867   -0.033933
H     -3.830227    2.045573    1.164063
H     -5.337964    2.486471    1.978690
H     -4.720924    3.457113    0.626266
