43
 xtb: 6.6.1 (8d0f1dd)
C     -2.682200   -2.383500   -4.986500
O     -1.959300   -1.771000   -3.927600
C     -2.076900   -2.238400   -2.683200
C     -2.879800   -3.337100   -2.336400
C     -2.956200   -3.772500   -1.031300
C     -2.239800   -3.130900   -0.031900
C     -1.449500   -2.031600   -0.344000
C     -1.357800   -1.572000   -1.665200
C     -0.517600   -0.417200   -1.963800
C      0.029600    0.324200   -0.823000
C      0.102600   -0.193500    0.440300
C      0.875100    0.516000    1.467500
C      1.040300    1.909300    1.302300
C      0.368900    2.563900    0.125500
O      0.847400    3.866100   -0.069200
C      0.632400    1.679900   -1.103600
O      0.108900    2.361800   -2.213300
C      1.787900    2.671500    2.166800
C      2.465600    2.070600    3.226300
C      3.315700    2.900400    4.153300
O      3.570500    2.302500    5.401700
C      2.350700    0.708300    3.390500
C      1.559800   -0.079100    2.550000
O      1.589600   -1.395800    2.830100
C     -0.684700   -1.402200    0.743100
O     -0.777300   -1.854600    1.884700
O     -0.242100   -0.074000   -3.117900
H     -2.412400   -1.813700   -5.872400
H     -3.758500   -2.315200   -4.817500
H     -2.382000   -3.425200   -5.114100
H     -3.442100   -3.851800   -3.097400
H     -3.575900   -4.620200   -0.787000
H     -2.280000   -3.467300    0.992100
H     -0.725600    2.590700    0.286900
H      0.588900    4.143400   -0.961800
H      1.727800    1.560900   -1.219800
H      0.059000    1.735600   -2.960700
H      1.857300    3.733000    1.994900
H      2.858400    3.890500    4.280100
H      4.299500    3.043600    3.693600
H      2.735400    2.196300    5.877700
H      2.877400    0.204700    4.186400
H      0.751000   -1.826700    2.553000
