72
 xtb: 6.6.1 (8d0f1dd)
C      6.589500    1.584600   -1.409700
C      6.481200    0.064600   -1.620000
C      5.349600   -0.499200   -0.797700
C      5.603200   -1.284800    0.298500
C      7.000500   -1.650700    0.688900
C      8.015100   -0.732700    0.006300
C      9.435300   -1.290600    0.083100
C     10.440300   -0.260600   -0.369800
O     10.334400    0.933200   -0.194300
O     11.480400   -0.806700   -0.973400
O      7.703100   -0.600700   -1.374200
C      4.527900   -1.794900    1.077500
O      4.843400   -2.536600    2.129000
C      3.205100   -1.506000    0.715600
C      2.942000   -0.708100   -0.428200
C      1.584100   -0.412000   -0.837900
C      0.493100   -0.978600   -0.017300
C      0.761800   -1.714500    1.078300
C      2.112900   -2.030200    1.513600
O      2.298400   -2.732300    2.523100
C     -0.882400   -0.691900   -0.443700
C     -1.259600   -0.860000   -1.752300
C     -2.573800   -0.592100   -2.183800
C     -3.521800   -0.130300   -1.255700
C     -3.140200    0.069300    0.093800
C     -1.828900   -0.210300    0.509100
O     -1.415100   -0.027800    1.754400
C     -4.103200    0.572000    1.065000
O     -3.800800    0.754100    2.256300
C     -5.459500    0.842500    0.593200
C     -5.833300    0.623300   -0.685400
C     -7.237900    0.836400   -1.140400
C     -8.029800    1.675000   -0.136300
C     -9.545600    1.562800   -0.359400
C    -10.018900    0.195900    0.075000
O     -9.698700   -0.847300   -0.454900
O    -10.830800    0.253200    1.109900
O     -7.782400    1.232300    1.192000
C     -6.438900    1.368600    1.609200
C     -6.087000    2.818800    1.983600
C     -4.881400    0.139700   -1.692300
O     -5.240600   -0.020300   -2.868600
O     -2.846100   -0.804400   -3.463000
O      1.327500    0.296700   -1.823500
C      4.015200   -0.198400   -1.180400
O      3.844900    0.549400   -2.260300
H      5.743700    2.076500   -1.877300
H      7.511300    1.936400   -1.865200
H      6.604000    1.833200   -0.351700
H      6.280000   -0.124100   -2.680600
H      7.178700   -2.685300    0.383500
H      7.099700   -1.605300    1.773500
H      8.002400    0.258400    0.481100
H      9.532300   -2.171300   -0.550000
H      9.669500   -1.558900    1.113900
H     12.143800   -0.149200   -1.261300
H      4.010500   -2.829800    2.588100
H     -0.031700   -2.131700    1.680500
H     -0.561100   -1.220700   -2.489800
H     -2.172100    0.321500    2.302500
H     -7.236300    1.299500   -2.128500
H     -7.712300   -0.145900   -1.244600
H     -7.735600    2.729800   -0.232000
H     -9.761600    1.704300   -1.417100
H    -10.065000    2.306900    0.241200
H    -11.123200   -0.626300    1.420700
H     -6.371600    0.754100    2.514800
H     -5.138700    2.831000    2.511400
H     -6.864600    3.212800    2.631400
H     -6.006300    3.441200    1.096000
H     -3.798200   -0.584500   -3.642900
H      2.870300    0.677200   -2.422700
