64
 xtb: 6.6.1 (8d0f1dd)
O     -1.062600   -2.250200    2.248300
C     -0.507800   -1.861900    1.229200
C     -1.260100   -1.693300   -0.021000
O     -2.633800   -1.644100    0.132400
C     -3.125300   -0.745600    1.024300
C     -4.557600   -0.948100    1.200200
C     -5.333200   -0.260300    2.047600
C     -4.897400    0.825400    2.926000
C     -5.697900    2.072400    3.006800
O     -5.724600    1.118900    4.030900
C     -5.036500    3.398100    3.259700
O     -2.422800    0.101400    1.539200
C     -0.675200   -1.617700   -1.242100
C     -1.394700   -1.478600   -2.497200
C     -2.635400   -2.092500   -2.701700
C     -3.303300   -1.953500   -3.897300
C     -2.758100   -1.178100   -4.922800
O     -3.374000   -0.999400   -6.102400
C     -1.521400   -0.557300   -4.724300
C     -0.847100   -0.713400   -3.536800
C      0.803900   -1.719200   -1.301100
O      1.405400   -1.987700   -2.332200
C      0.941300   -1.546500    1.178200
C      1.636800   -1.360400    2.440700
C      0.986400   -0.735100    3.511900
C      1.629200   -0.547700    4.715000
C      2.939100   -0.996200    4.891500
O      3.608700   -0.848700    6.045900
C      3.593400   -1.626500    3.827900
C      2.955600   -1.797500    2.623000
C      1.527600   -1.490100   -0.043400
O      2.879600   -1.241400   -0.191700
C      3.238100   -0.255400   -1.054100
C      4.683200   -0.256200   -1.241100
C      5.348800    0.536800   -2.090200
C      4.760300    1.555900   -2.959100
C      5.390100    2.896500   -3.050500
C      4.557400    4.124300   -3.291700
O      5.525100    1.954000   -4.076200
O      2.423100    0.504800   -1.537800
H     -4.973000   -1.736400    0.593200
H     -6.385100   -0.504500    2.116600
H     -3.832100    0.904300    3.111400
H     -6.611000    2.109700    2.417000
H     -4.710200    3.825100    2.315400
H     -5.741500    4.077300    3.732300
H     -4.176800    3.271800    3.912100
H     -3.052900   -2.709500   -1.923200
H     -4.249200   -2.452900   -4.042300
H     -4.225500   -1.465800   -6.136400
H     -1.112400    0.043800   -5.520100
H      0.099200   -0.216200   -3.390600
H     -0.020500   -0.369100    3.382500
H      1.113200   -0.050600    5.522400
H      3.066500   -0.411500    6.722700
H      4.600700   -1.978300    3.980000
H      3.459300   -2.305300    1.817400
H      5.208700   -0.984400   -0.644400
H      6.423500    0.438800   -2.170400
H      3.691100    1.494500   -3.128200
H      6.299500    3.052300   -2.474600
H      5.164900    4.895600   -3.758500
H      3.721600    3.889500   -3.945000
H      4.177900    4.495700   -2.343700
