64

O     -1.197205   -2.503227    2.263446
C     -0.645482   -2.112460    1.238723
C     -1.420490   -1.952186   -0.025918
O     -2.825392   -1.936758    0.076431
C     -3.241138   -0.801312    0.716777
C     -4.709578   -0.889550    0.878933
C     -5.391720   -0.144440    1.764009
C     -4.863555    0.832694    2.722787
C     -4.643837    2.255213    2.266572
O     -5.669069    1.925466    3.209272
C     -3.525298    3.063536    2.819290
O     -2.546005    0.136907    1.077561
C     -0.798882   -1.845603   -1.211801
C     -1.576905   -1.702598   -2.452792
C     -2.175841   -2.818489   -3.055565
C     -2.924484   -2.670839   -4.226055
C     -3.075822   -1.405629   -4.786068
O     -3.794287   -1.216555   -5.928454
C     -2.492417   -0.289939   -4.196840
C     -1.738884   -0.436679   -3.031538
C      0.686709   -1.837373   -1.264615
O      1.302414   -1.990705   -2.314719
C      0.800351   -1.778578    1.200560
C      1.545610   -1.581733    2.452292
C      1.557558   -0.318736    3.064754
C      2.297306   -0.107769    4.230930
C      3.023255   -1.161422    4.779069
O      3.760612   -0.998348    5.913830
C      3.020366   -2.419104    4.183073
C      2.280083   -2.632119    3.019199
C      1.417176   -1.634426    0.016676
O      2.783441   -1.318290   -0.073006
C      2.941861   -0.017477   -0.469698
C      4.396031    0.231421   -0.600468
C      4.913406    1.277661   -1.264195
C      4.190799    2.320134   -2.005787
C      4.903528    3.036178   -3.132422
C      4.610686    4.460666   -3.440391
O      3.822736    2.137935   -3.387079
O      2.061967    0.815351   -0.625001
H     -5.226680   -1.602968    0.246393
H     -6.470784   -0.284142    1.806056
H     -4.157611    0.412459    3.434169
H     -4.940841    2.557396    1.271487
H     -2.640438    2.967287    2.179958
H     -3.804864    4.121315    2.855000
H     -3.250386    2.749932    3.833164
H     -2.055243   -3.810207   -2.624977
H     -3.372608   -3.546984   -4.684828
H     -4.079097   -2.082685   -6.264419
H     -2.613301    0.690921   -4.649840
H     -1.275657    0.441406   -2.587200
H      0.990213    0.507698    2.638869
H      2.292477    0.875955    4.690117
H      3.587271   -0.110466    6.270906
H      3.586829   -3.234020    4.627482
H      2.274691   -3.622814    2.567154
H      5.052963   -0.490343   -0.126742
H      5.999554    1.355879   -1.278609
H      3.506965    2.908865   -1.398016
H      5.899367    2.729669   -3.427651
H      4.813055    4.664153   -4.498165
H      3.567799    4.723977   -3.232272
H      5.256722    5.106899   -2.840330
