34

C      5.612817    0.181098    0.340291
C      4.132182   -0.005964    0.178404
C      3.262252    1.081393    0.310188
C      1.907521    0.832630    0.180637
C      1.365215   -0.431146   -0.061258
C      2.226905   -1.507816   -0.177364
C      3.605060   -1.295015   -0.052845
O      1.828664   -2.790340   -0.405821
C     -0.088654   -0.290010   -0.131551
C     -0.448288    0.987574    0.055744
C      0.790590    1.742447    0.259860
N      0.852550    3.034125    0.477459
N      0.937067    4.154987    0.668353
C     -1.839741    1.446132    0.041959
O     -2.146598    2.618902    0.215555
C     -2.877390    0.420651   -0.193766
C     -2.515819   -0.918220   -0.390933
C     -1.094106   -1.336318   -0.368109
O     -0.764123   -2.504338   -0.538553
C     -3.504070   -1.887314   -0.614160
C     -4.849850   -1.519375   -0.640281
C     -5.212253   -0.187138   -0.444258
C     -4.231553    0.777595   -0.222216
O     -4.675394    2.059322   -0.039733
H      6.165496   -0.525780   -0.287375
H      5.915029    1.189193    0.037636
H      5.896979    0.025757    1.385546
H      3.635576    2.081779    0.505801
H      4.275722   -2.148897   -0.138435
H      0.850536   -2.835581   -0.481232
H     -3.232493   -2.930756   -0.768465
H     -5.617854   -2.270436   -0.813425
H     -6.260859    0.102055   -0.464187
H     -3.901116    2.648803    0.107317
