54
 xtb: 6.6.1 (8d0f1dd)
C      7.104100    0.784900   -2.896800
C      5.763900    0.247300   -2.409300
C      5.605200    0.331900   -0.880700
C      6.553100   -0.630200   -0.157400
C      4.201600   -0.013900   -0.517800
C      3.354700    0.812700    0.104300
C      2.004000    0.452400    0.466800
C      1.160200    1.293800    1.137300
C     -0.145800    0.876200    1.505500
C     -1.024800    1.652200    2.236800
C     -2.281800    1.228300    2.722300
O     -3.039200    1.937500    3.392900
C     -2.734900   -0.216300    2.399800
C     -1.909100   -0.960800    1.322100
C     -0.524800   -0.443000    1.084300
C      0.382700   -1.196900    0.421000
O      1.616100   -0.793100    0.122400
C     -2.817100   -0.810300    0.117600
C     -4.002700   -0.319200    0.535000
O     -4.067200   -0.049800    1.835200
C     -5.173200   -0.163300   -0.371500
C     -4.604800    0.031700   -1.788600
O     -3.583800   -0.928200   -2.118200
C     -2.618600   -1.251800   -1.238900
O     -1.677700   -1.925200   -1.627700
C     -4.062600    1.444700   -1.992100
C     -6.073700   -1.400500   -0.268500
C     -2.850600   -0.991900    3.705100
Cl    -0.572200    3.279400    2.696400
H      7.251200    1.808200   -2.559300
H      7.927900    0.178100   -2.531900
H      7.134200    0.775800   -3.983600
H      5.649500   -0.791100   -2.725600
H      4.961400    0.827000   -2.871100
H      5.822300    1.355500   -0.561300
H      7.587200   -0.356600   -0.342000
H      6.376100   -0.592700    0.914700
H      6.394200   -1.649600   -0.500100
H      3.877200   -1.011000   -0.783200
H      3.654400    1.811800    0.380900
H      1.483700    2.283000    1.410700
H     -1.838200   -2.024900    1.579800
H      0.171200   -2.190100    0.053800
H     -5.744500    0.723000   -0.087300
H     -5.381500   -0.175300   -2.530500
H     -3.319700    1.683300   -1.233500
H     -4.874800    2.161800   -1.930100
H     -3.597200    1.519000   -2.970900
H     -6.382600   -1.550400    0.762100
H     -5.537300   -2.283100   -0.609700
H     -6.956400   -1.264000   -0.885700
H     -1.860600   -1.137400    4.127600
H     -3.319300   -1.955400    3.523000
H     -3.459800   -0.423500    4.403900
