54

C      7.273966    0.722176   -2.814919
C      5.919995    0.210819   -2.342221
C      5.720546    0.322363   -0.819853
C      6.704541   -0.548900   -0.036104
C      4.306291   -0.079541   -0.466205
C      3.415257    0.746994    0.107030
C      2.051622    0.397319    0.457015
C      1.202561    1.274270    1.022942
C     -0.162719    0.855849    1.370589
C     -1.006863    1.670859    2.035155
C     -2.381536    1.231988    2.424133
O     -3.191340    2.050622    2.868382
C     -2.742220   -0.255834    2.294835
C     -1.969937   -0.988885    1.177503
C     -0.571464   -0.491199    0.956134
C      0.369289   -1.284551    0.410133
O      1.675041   -0.911075    0.172280
C     -2.927565   -0.796791    0.060023
C     -4.109591   -0.450822    0.556650
O     -4.155143   -0.304588    1.935858
C     -5.329212   -0.229416   -0.266120
C     -4.862655    0.130175   -1.691633
O     -3.809647   -0.758548   -2.158726
C     -2.773635   -1.120183   -1.353833
O     -1.797582   -1.724295   -1.773584
C     -4.376204    1.574913   -1.822316
C     -6.196159   -1.489501   -0.263149
C     -2.563493   -0.919726    3.658341
Cl    -0.591797    3.287068    2.524747
H      7.444037    1.750767   -2.481737
H      8.091409    0.096775   -2.444719
H      7.318168    0.709212   -3.908796
H      5.799930   -0.830564   -2.667294
H      5.139928    0.789992   -2.853441
H      5.887474    1.366657   -0.524424
H      7.734485   -0.205504   -0.174547
H      6.492821   -0.510373    1.038670
H      6.651682   -1.597120   -0.351258
H      4.022724   -1.103478   -0.705792
H      3.720826    1.766901    0.333266
H      1.531715    2.287231    1.227911
H     -1.938909   -2.066790    1.396397
H      0.205835   -2.299416    0.068148
H     -5.917902    0.599681    0.144427
H     -5.700508   -0.000197   -2.387099
H     -3.497431    1.772739   -1.200162
H     -5.164369    2.281374   -1.544616
H     -4.075948    1.778206   -2.856083
H     -6.512818   -1.744849    0.754364
H     -5.664471   -2.354342   -0.675830
H     -7.099743   -1.335100   -0.862669
H     -1.515923   -0.915838    3.976669
H     -2.921401   -1.955063    3.638622
H     -3.151961   -0.402458    4.425089
