29
 xtb: 6.6.1 (8d0f1dd)
C      4.653100    0.168300   -1.741700
C      3.313600    0.498900   -1.181500
C      2.355300   -0.494100   -0.969400
C      1.117700   -0.146500   -0.445800
C      0.870400    1.200500   -0.147000
C      1.897400    2.111400   -0.398200
N      3.071000    1.776300   -0.893900
C     -0.409500    1.649200    0.407900
O     -0.597800    2.852800    0.662600
C     -1.419300    0.638900    0.636900
C     -1.178500   -0.732600    0.336500
C      0.092600   -1.176900   -0.212800
O      0.322400   -2.364100   -0.479200
C     -2.175300   -1.682600    0.568600
C     -3.435300   -1.279900    1.107200
O     -4.382200   -2.194300    1.325700
C     -3.658500    0.044900    1.394900
C     -2.669000    1.014000    1.168200
O     -2.973500    2.269400    1.476300
O     -2.046800   -2.988700    0.319500
H      5.161600   -0.543200   -1.094700
H      5.247600    1.071400   -1.828200
H      4.543000   -0.291900   -2.721200
H      2.559300   -1.527400   -1.205200
H      1.745100    3.160300   -0.180500
H     -4.059800   -3.079600    1.070100
H     -4.606000    0.356600    1.802000
H     -2.195800    2.854200    1.271500
H     -1.142900   -3.165500   -0.048600
