70

C     -6.536192   -1.434648   -1.882702
C     -7.890750   -1.720155   -1.685553
C     -8.378364   -1.875530   -0.393122
C     -7.533206   -1.751274    0.701585
C     -6.179465   -1.464526    0.506571
C     -5.669104   -1.295588   -0.789007
C     -4.242110   -0.990204   -1.017109
C     -3.685701    0.152249   -0.566870
C     -2.345516    0.647353   -0.676801
C     -2.220706    1.839439   -0.089974
C     -3.577812    2.120074    0.422294
O     -3.899108    3.129431    1.029756
O     -4.438352    1.100484    0.125745
C     -1.058304    2.726182    0.017550
C      0.225512    2.199336    0.214649
C      1.397328    2.990763    0.182372
C      1.224774    4.396159    0.088876
C     -0.057264    4.936125   -0.030876
C     -1.188511    4.111490   -0.091806
C     -0.210849    6.395730   -0.123007
O     -1.308246    6.899839   -0.293179
C      1.025496    7.283189    0.018627
O      0.934431    8.500315    0.090676
O      2.235672    6.630595    0.062734
C      2.341748    5.227287    0.100934
C      3.627595    4.702131    0.149741
C      3.821830    3.330495    0.201067
C      2.721182    2.455382    0.226436
C      3.008745    1.015213    0.247358
C      3.796891    0.343973    1.088138
C      3.816290   -1.059484    0.779782
C      4.461377   -2.125151    1.309592
C      4.164038   -3.462779    0.742019
C      3.024508   -4.164851    1.158032
C      2.726700   -5.408709    0.604348
C      3.570802   -5.951850   -0.358512
C      4.713276   -5.274897   -0.777664
C      5.009969   -4.028926   -0.224654
O      3.241261   -7.168135   -0.873625
C      5.437648   -2.014407    2.423518
O      5.797119   -0.982961    2.964646
O      5.931668   -3.195250    2.826089
O      2.950475   -1.245035   -0.315737
C      2.460502   -0.013969   -0.651230
O      1.649268    0.192057   -1.542375
O      4.433142    0.929071    2.140291
O      4.731619    5.501510    0.144968
O     -1.407864   -0.087319   -1.341351
C     -3.432191   -1.961534   -1.775365
O     -3.044492   -3.040583   -1.364736
O     -3.242683   -1.562766   -3.046929
O     -9.694429   -2.146740   -0.154572
H     -6.164586   -1.310273   -2.900175
H     -8.541162   -1.813796   -2.549079
H     -7.927499   -1.875668    1.704214
H     -5.532006   -1.371897    1.376376
H      0.310044    1.128983    0.384790
H     -2.170836    4.567688   -0.222116
H      4.841838    2.951163    0.237209
H      2.355068   -3.743917    1.905890
H      1.841332   -5.951761    0.925290
H      5.372037   -5.692830   -1.532926
H      5.904150   -3.497862   -0.549167
H      3.888635   -7.410270   -1.553221
H      6.551296   -2.978313    3.553091
H      5.060245    0.308420    2.572087
H      4.444455    6.416515    0.370136
H     -0.580493    0.423329   -1.486097
H     -2.726356   -2.297098   -3.432297
H    -10.165811   -2.181014   -1.006783
