57
 xtb: 6.6.1 (8d0f1dd)
C      5.681600    2.865600   -1.814700
C      6.229400    2.288700   -0.514400
C      6.089800    0.756800   -0.378300
C      6.924200    0.011700   -1.421300
C      4.656800    0.360500   -0.482600
C      3.876900    0.080900    0.566900
C      2.482800   -0.277300    0.454100
C      1.702600   -0.592200    1.530600
C      0.341400   -0.964100    1.362600
C     -0.496200   -1.329700    2.395500
C     -1.815800   -1.822200    2.234400
O     -2.569000   -2.106000    3.171000
C     -2.284200   -2.090700    0.789900
C     -1.595000   -1.205200   -0.259700
C     -0.152200   -0.933400    0.010700
C      0.696600   -0.595600   -0.984900
O      1.982000   -0.289300   -0.801400
C     -2.462600    0.071900   -0.248400
C     -2.676000    0.622400   -1.641800
O     -1.847600    0.476300   -2.515900
O     -3.777300    1.294800   -1.903600
C     -4.856600    1.368000   -0.953100
C     -5.040600    0.015800   -0.251800
C     -3.748700   -0.348100    0.511100
O     -3.664800   -1.739000    0.678200
O     -3.692700    0.301000    1.760700
C     -5.426600   -1.063000   -1.263100
C     -4.674500    2.554500   -0.013800
C     -2.133100   -3.582900    0.516500
Cl     0.067300   -1.242000    4.048200
H      6.177600    2.431400   -2.678000
H      4.612200    2.691000   -1.899000
H      5.850700    3.939800   -1.836200
H      7.288800    2.538200   -0.429800
H      5.709400    2.753900    0.325600
H      6.459300    0.493900    0.618400
H      7.960500    0.336100   -1.374100
H      6.548300    0.191800   -2.424400
H      6.888700   -1.058200   -1.231100
H      4.242700    0.312300   -1.480000
H      4.265000    0.110100    1.573500
H      2.116000   -0.576800    2.524100
H     -1.699500   -1.676300   -1.242100
H      0.390200   -0.524100   -2.018500
H     -1.978600    0.859100    0.339300
H     -5.723600    1.554100   -1.596200
H     -5.842400    0.121700    0.482900
H     -4.296800   -0.133800    2.380400
H     -4.657200   -1.170700   -2.025400
H     -5.546600   -2.016600   -0.758700
H     -6.361100   -0.793600   -1.746600
H     -5.602900    2.732200    0.519200
H     -4.426400    3.437400   -0.596300
H     -3.888700    2.371000    0.712400
H     -2.569200   -3.820700   -0.449700
H     -2.654300   -4.142900    1.288700
H     -1.080200   -3.848500    0.524100
