47
 xtb: 6.6.1 (8d0f1dd)
O      6.822700   -1.171900    1.078100
C      5.879000   -0.711400    0.200600
C      6.354300   -0.258300   -1.047800
O      7.681400   -0.290300   -1.340200
C      5.442500    0.215300   -1.956100
C      4.069900    0.253800   -1.665000
C      3.169100    0.756900   -2.634000
C      1.840300    0.812500   -2.379700
C      1.291100    0.371900   -1.150000
C     -0.120300    0.461700   -0.952200
C     -1.057300    0.970000   -1.887600
C     -2.403200    0.996100   -1.564900
C     -2.867500    0.538600   -0.346200
C     -4.235300    0.512600    0.095500
C     -4.543300    0.012500    1.372400
C     -5.842200   -0.031500    1.832000
O     -6.102200   -0.523400    3.075300
C     -6.887100    0.429900    1.015100
O     -8.155500    0.359000    1.525200
C     -6.593100    0.926300   -0.245800
C     -5.292900    0.969700   -0.703500
O     -1.965300    0.046200    0.572100
C     -0.640500    0.012100    0.268900
C      0.187300   -0.502800    1.252000
C      1.559600   -0.590800    1.069900
O      2.350600   -1.103100    2.053600
C      1.767700   -1.547700    3.265500
C      2.157400   -0.150300   -0.144900
C      3.578600   -0.202000   -0.415200
C      4.537600   -0.681000    0.495600
H      6.403600   -1.460100    1.901500
H      8.159400   -0.649600   -0.574100
H      5.794700    0.566100   -2.913500
H      3.565400    1.096700   -3.578900
H      1.181900    1.202700   -3.136900
H     -0.748000    1.338900   -2.848500
H     -3.107200    1.382200   -2.280900
H     -3.759800   -0.347800    2.018000
H     -7.059600   -0.476400    3.233200
H     -8.797000    0.692500    0.882200
H     -7.393500    1.282800   -0.877100
H     -5.103900    1.361700   -1.688200
H     -0.283400   -0.830200    2.162700
H      2.602000   -1.904600    3.865700
H      1.066700   -2.367500    3.092500
H      1.266000   -0.730400    3.788700
H      4.229500   -1.037400    1.460500
