47

O      6.978887   -1.182339    0.981198
C      6.013953   -0.714463    0.133622
C      6.417895   -0.246039   -1.098852
O      7.735113   -0.254862   -1.446896
C      5.483374    0.236967   -1.991092
C      4.120393    0.254228   -1.650403
C      3.234772    0.751578   -2.590610
C      1.872473    0.801923   -2.329172
C      1.312667    0.359740   -1.115767
C     -0.112303    0.439298   -0.906590
C     -1.058733    0.936689   -1.829877
C     -2.424052    0.980417   -1.551805
C     -2.916760    0.529107   -0.335380
C     -4.329409    0.518726    0.085268
C     -4.652328    0.021899    1.362959
C     -5.969309   -0.008224    1.803989
O     -6.231395   -0.498539    3.049086
C     -7.003135    0.449710    0.999425
O     -8.270201    0.388784    1.500082
C     -6.727006    0.946379   -0.264786
C     -5.397861    0.980047   -0.717696
O     -2.008569    0.019170    0.628596
C     -0.627327   -0.008932    0.308721
C      0.193142   -0.518475    1.296324
C      1.571371   -0.602603    1.111155
O      2.379684   -1.109396    2.095563
C      1.819379   -1.558641    3.325985
C      2.196391   -0.165242   -0.108995
C      3.642423   -0.215231   -0.394731
C      4.662017   -0.701312    0.481036
H      6.557712   -1.478245    1.806245
H      8.198711   -0.633209   -0.672763
H      5.831938    0.599796   -2.955727
H      3.595066    1.112640   -3.554290
H      1.267662    1.210138   -3.135081
H     -0.751790    1.309533   -2.806761
H     -3.093097    1.376470   -2.310672
H     -3.877170   -0.349279    2.032700
H     -7.203011   -0.428877    3.154888
H     -8.896152    0.737913    0.841241
H     -7.523612    1.309504   -0.909275
H     -5.233390    1.378909   -1.716903
H     -0.298811   -0.841628    2.206309
H      2.640270   -1.917742    3.953960
H      1.133260   -2.395690    3.162220
H      1.327806   -0.736937    3.856446
H      4.419062   -1.083662    1.462738
