50
 xtb: 6.6.1 (8d0f1dd)
O      7.482900   -0.590300    0.231800
C      6.293800   -0.899000    0.834500
C      6.374600   -1.632400    2.036700
O      7.579000   -2.007200    2.543200
C      5.207500   -1.950000    2.683300
C      3.958200   -1.568400    2.169900
C      2.782500   -1.899500    2.885400
C      1.565600   -1.517700    2.430400
C      1.407400   -0.803400    1.216800
C      0.093400   -0.434800    0.796900
C     -1.104100   -0.677200    1.516900
C     -2.316600   -0.270300    0.988000
C     -2.399300    0.373100   -0.232900
C     -3.593700    0.834000   -0.886100
C     -4.867400    0.655900   -0.314100
C     -5.998400    1.103800   -0.959100
O     -7.284900    0.979400   -0.487700
C     -7.490100    0.345600    0.758200
C     -5.895800    1.749100   -2.207000
O     -7.003900    2.195400   -2.855500
C     -4.642800    1.927100   -2.774000
C     -3.510800    1.479200   -2.128400
O     -1.239700    0.623100   -0.936300
C     -0.040900    0.228400   -0.430100
C      1.065400    0.516600   -1.211300
C      2.347200    0.177400   -0.803400
O      3.418200    0.459800   -1.595900
C      3.218300    1.075800   -2.855700
C      2.559100   -0.481800    0.440500
C      3.862400   -0.848800    0.951800
C      5.076400   -0.525700    0.319000
H      7.327900   -0.087000   -0.580200
H      8.278700   -1.685400    1.950400
H      5.258100   -2.501700    3.608800
H      2.878800   -2.454100    3.806500
H      0.691500   -1.775200    3.003900
H     -1.094300   -1.168000    2.473200
H     -3.217900   -0.460100    1.543900
H     -4.957800    0.163000    0.637800
H     -7.140100   -0.689500    0.735600
H     -8.566300    0.365500    0.914800
H     -6.990400    0.889700    1.563500
H     -7.787400    1.988900   -2.319900
H     -4.580400    2.423200   -3.729100
H     -2.544400    1.625100   -2.581300
H      0.885200    1.017800   -2.146400
H      2.779900    2.070600   -2.746500
H      4.212800    1.162800   -3.288200
H      2.591900    0.459400   -3.504500
H      5.070900    0.037700   -0.595200
