36

C     -5.616745   -0.422517   -0.233603
C     -4.142342   -0.167563   -0.149931
C     -3.423867   -0.858215    0.954027
C     -1.946461   -0.798056    0.977409
C     -1.247987   -1.524443    1.949020
C      0.143462   -1.488467    1.975624
C      0.854885   -0.784437    0.997370
C      0.156236   -0.111434   -0.010546
C     -1.247613   -0.045666    0.032560
C     -2.018438    0.904570   -0.788478
O     -1.534328    1.930512   -1.252282
C     -3.471711    0.656676   -0.964985
O     -4.107801    1.389392   -1.951399
C      0.929881    0.367977   -1.174784
O      0.423783    0.399781   -2.288287
C      2.362743    0.662051   -1.011060
C      3.057129    0.114496    0.065595
C      2.331762   -0.721935    1.038338
O      2.949358   -1.334916    1.906525
C      4.429644    0.354514    0.190294
C      5.094565    1.143191   -0.746844
C      4.394663    1.686397   -1.825304
C      3.028290    1.441085   -1.964310
O      5.188882   -0.154337    1.207920
O      0.746008   -2.185090    2.985319
O     -4.028722   -1.487089    1.813452
H     -6.087316    0.100981   -1.071676
H     -6.115433   -0.090854    0.683217
H     -5.810545   -1.492135   -0.367142
H     -1.784265   -2.104353    2.699912
H     -3.420582    1.991448   -2.312335
H      6.161343    1.327545   -0.640612
H      4.916899    2.294278   -2.561097
H      2.486380    1.854470   -2.813767
H      4.626095   -0.745859    1.753901
H      1.722146   -2.101999    2.897958
