65

C      0.222716    0.093537   -3.085484
C      1.279346   -0.730071   -2.399960
C      2.716127   -0.358204   -2.735781
C      3.340132    0.677840   -1.789993
C      2.872158    2.084419   -2.048358
C      2.185690    2.897305   -1.221735
C      1.825551    4.295585   -1.652601
C      1.708230    2.536316    0.158078
C      1.038485   -1.766819   -1.569243
C     -0.281457   -2.323140   -1.104488
N     -0.314571   -2.345603    0.369339
C     -0.842768   -1.277528    1.115933
C     -0.926342   -1.489687    2.624807
C     -1.504079   -0.410734    3.479392
C     -1.932034    0.709769    2.899265
O     -2.481909    1.790549    3.542659
N     -0.517903   -2.558995    3.231795
C      0.077486   -3.583038    2.470015
C      0.562117   -4.724315    3.140360
C      0.495644   -4.818276    4.614275
O      0.010735   -6.020107    4.989553
O      0.828573   -3.991146    5.439924
C      1.140061   -5.787410    2.437641
C      1.253918   -5.714999    1.058167
C      0.786019   -4.586551    0.378828
C      0.180624   -3.501590    1.050934
C     -1.286405   -0.096595    0.632486
C     -1.867337    0.901538    1.494613
C     -2.397744    2.090851    1.203477
C     -2.573526    2.753485   -0.089553
C     -3.152085    2.080643   -1.176542
C     -3.304385    2.716306   -2.411016
C     -2.891004    4.037022   -2.570087
C     -2.338317    4.725216   -1.492993
C     -2.181044    4.087817   -0.259875
C     -2.768955    2.664216    2.521712
O     -3.265813    3.767412    2.690026
H      0.185448    1.103299   -2.666388
H     -0.779314   -0.335422   -3.002499
H      0.438430    0.172104   -4.157175
H      2.781304   -0.019281   -3.777676
H      3.335699   -1.264864   -2.693484
H      3.195013    0.369538   -0.751012
H      4.426161    0.670934   -1.949884
H      3.156578    2.469827   -3.028061
H      0.739023    4.411062   -1.691963
H      2.227696    5.026554   -0.944493
H      2.221780    4.542120   -2.642683
H      1.937279    1.508907    0.450835
H      2.166812    3.201023    0.899278
H      0.622151    2.654367    0.218000
H      1.900741   -2.284889   -1.150589
H     -1.127094   -1.745124   -1.487519
H     -0.446001   -3.315407   -1.537830
H     -1.545482   -0.579851    4.547481
H     -0.018727   -5.948288    5.966618
H      1.508653   -6.662373    2.967348
H      1.711922   -6.532313    0.505709
H      0.924656   -4.590571   -0.697470
H     -1.214981    0.139436   -0.421101
H     -3.506406    1.056860   -1.072259
H     -3.750124    2.182766   -3.246076
H     -3.011664    4.534249   -3.529051
H     -2.027102    5.760806   -1.609842
H     -1.748387    4.649513    0.566217
