65
 xtb: 6.6.1 (8d0f1dd)
C      0.145100   -0.059400   -3.127900
C      1.223700   -0.808100   -2.414000
C      2.629500   -0.402000   -2.771300
C      3.151200    0.710500   -1.841900
C      2.509900    2.032300   -2.121900
C      1.808200    2.793400   -1.290000
C      1.275400    4.127500   -1.723400
C      1.495500    2.444900    0.135900
C      1.039400   -1.761800   -1.506900
C     -0.261200   -2.312400   -0.992600
N     -0.256900   -2.381800    0.463400
C     -0.742000   -1.316800    1.186100
C     -0.953800   -1.542700    2.609000
C     -1.558600   -0.523700    3.402100
C     -1.897100    0.635000    2.796200
O     -2.457400    1.719700    3.390300
N     -0.602100   -2.650300    3.207600
C      0.037700   -3.602300    2.507900
C      0.502700   -4.756700    3.183900
C      0.401000   -4.847500    4.660300
O      0.274800   -6.102100    5.077400
O      0.461100   -3.910800    5.427200
C      1.096000   -5.782400    2.475300
C      1.270600   -5.668400    1.097600
C      0.848500   -4.550000    0.416900
C      0.212900   -3.498700    1.096000
C     -1.070500   -0.107500    0.612300
C     -1.687500    0.882600    1.392400
C     -2.162300    2.169500    1.144100
C     -2.264400    2.899600   -0.105700
C     -2.413400    2.227100   -1.322100
C     -2.518500    2.927400   -2.507400
C     -2.488200    4.312900   -2.505800
C     -2.359700    4.993000   -1.304400
C     -2.246300    4.297400   -0.115700
C     -2.628300    2.688400    2.404300
O     -3.127200    3.761000    2.704300
H      0.212400    0.998600   -2.872200
H     -0.850900   -0.419400   -2.892600
H      0.290800   -0.146100   -4.203100
H      2.666100   -0.046900   -3.801600
H      3.294400   -1.262200   -2.680800
H      3.007100    0.411800   -0.804300
H      4.226400    0.815800   -2.012700
H      2.672400    2.391800   -3.131400
H      0.186600    4.132000   -1.682500
H      1.629900    4.906500   -1.049400
H      1.588300    4.371500   -2.735000
H      1.532800    1.375000    0.317800
H      2.207500    2.931100    0.803600
H      0.501400    2.804200    0.395800
H      1.910800   -2.223600   -1.060700
H     -1.112000   -1.706800   -1.297800
H     -0.424300   -3.321900   -1.377000
H     -1.693400   -0.702700    4.454600
H      0.231500   -6.162400    6.051300
H      1.441500   -6.658200    2.999600
H      1.757100   -6.465100    0.558500
H      1.039600   -4.488300   -0.640500
H     -0.826200    0.119500   -0.409100
H     -2.488700    1.152700   -1.326100
H     -2.632800    2.392100   -3.437600
H     -2.569900    4.861100   -3.431600
H     -2.341700    6.072600   -1.292300
H     -2.144600    4.830000    0.817600
