33
 xtb: 6.6.1 (8d0f1dd)
C     -5.114700    0.626600    0.286600
O     -4.045500   -0.281100    0.457000
C     -2.775000    0.150200    0.209800
C     -2.453500    1.423400   -0.202400
C     -1.102600    1.769300   -0.431100
C     -0.141700    0.784100   -0.224800
C     -0.415100   -0.507400    0.188700
C      0.645000   -1.420400    0.366200
C      0.270300   -2.689200    0.784200
C     -1.087400   -2.951000    0.989800
N     -2.077800   -2.098900    0.824100
C     -1.765900   -0.857200    0.419600
C      1.986700   -0.919600    0.091400
C      3.109000   -1.741200    0.234000
C      4.381800   -1.280300   -0.022300
C      4.574400    0.032300   -0.434100
C      3.492400    0.872200   -0.586000
C      2.198000    0.419700   -0.330300
N      1.110500    1.262200   -0.482600
C      0.962900    2.571500   -0.860400
C     -0.364300    2.914100   -0.841100
H     -5.179100    0.973200   -0.748800
H     -5.017400    1.484200    0.958400
H     -6.009000    0.062200    0.540200
H     -3.218800    2.166700   -0.354600
H      0.984700   -3.477100    0.956100
H     -1.393800   -3.936600    1.316700
H      2.970300   -2.761600    0.552900
H      5.227300   -1.939100    0.097100
H      5.569200    0.397000   -0.635700
H      3.641700    1.890700   -0.905900
H      1.801600    3.184800   -1.120700
H     -0.764000    3.876400   -1.092100
