42
 xtb: 6.6.1 (8d0f1dd)
C      2.377200    2.160000   -0.937600
C      3.224000    1.034900   -0.426200
C      3.044200    0.408500    0.729900
C      1.970700    0.654400    1.756600
C      1.110400   -0.573900    1.827300
C      1.431400   -1.637800    2.593000
C      0.636300   -2.856800    2.636600
O      0.937900   -3.798000    3.400800
C     -0.490100   -2.919600    1.757300
C     -0.842200   -1.863700    0.965800
C     -0.088000   -0.617600    1.025000
N     -0.464300    0.455100    0.396600
C     -1.618200    0.451800   -0.296900
C     -2.100000    1.662000   -0.852400
C     -3.246400    1.656900   -1.624000
C     -3.944200    0.469900   -1.834900
C     -3.511000   -0.715700   -1.288300
C     -2.341000   -0.755000   -0.514600
N     -1.870800   -1.905600    0.052500
C     -2.445000   -3.183100   -0.314300
C     -1.413700    2.943000   -0.563700
O     -0.680400    3.150400    0.379900
O     -1.707300    3.887400   -1.450100
C      4.362600    0.665300   -1.333500
H      2.916600    3.101400   -0.834000
H      2.166900    2.011900   -1.995400
H      1.437000    2.239500   -0.402300
H      3.718400   -0.397100    0.997400
H      1.357400    1.513400    1.496800
H      2.443200    0.823500    2.726000
H      2.306400   -1.621100    3.227500
H     -1.050300   -3.839900    1.783300
H     -3.606800    2.582700   -2.041200
H     -4.849300    0.485300   -2.420200
H     -4.102600   -1.603400   -1.431400
H     -3.308500   -3.418000    0.308800
H     -1.693100   -3.957500   -0.186200
H     -2.738400   -3.163100   -1.360500
H     -1.271300    4.735400   -1.238700
H      4.973100    1.542000   -1.543000
H      3.978800    0.293900   -2.282900
H      4.990600   -0.101900   -0.888700
