29
 xtb: 6.6.1 (8d0f1dd)
C      4.600600   -0.682500    0.254800
C      3.200100   -0.299100   -0.084600
C      2.910600    0.469200   -1.193600
C      1.595900    0.824700   -1.520800
O      1.423000    1.569000   -2.613100
C      0.527900    0.395300   -0.701800
C     -0.838400    0.762600   -1.019000
O     -1.102000    1.460200   -2.026700
C     -1.899700    0.302100   -0.133300
C     -3.244400    0.644000   -0.394100
O     -3.620900    1.388200   -1.433700
C     -4.254600    0.192200    0.468400
C     -3.951600   -0.580100    1.565200
C     -2.631400   -0.921700    1.831300
C     -1.612200   -0.489600    0.996900
C     -0.230000   -0.879300    1.324800
O      0.023600   -1.576700    2.301900
C      0.832300   -0.393100    0.428600
C      2.141100   -0.727900    0.721800
H      4.798500   -0.491000    1.306500
H      5.313800   -0.135100   -0.352900
H      4.739300   -1.748500    0.083200
H      3.692500    0.823200   -1.847200
H      0.460000    1.755600   -2.737600
H     -2.824800    1.643300   -1.963100
H     -5.268900    0.474100    0.235900
H     -4.738200   -0.920600    2.219100
H     -2.369400   -1.526000    2.686000
H      2.327200   -1.332400    1.597000
