29

C      4.636648   -0.692265    0.229211
C      3.222323   -0.294062   -0.075147
C      2.928657    0.463605   -1.214428
C      1.610330    0.806201   -1.512663
O      1.422436    1.555325   -2.643072
C      0.560442    0.390076   -0.684846
C     -0.836016    0.748540   -0.994476
O     -1.090325    1.425333   -1.990028
C     -1.928573    0.297135   -0.113143
C     -3.261389    0.629321   -0.390958
O     -3.637932    1.378313   -1.472953
C     -4.288601    0.198794    0.446467
C     -3.993743   -0.569343    1.571641
C     -2.669998   -0.905412    1.856800
C     -1.637211   -0.471522    1.013446
C     -0.242032   -0.836479    1.330584
O      0.010030   -1.513425    2.320263
C      0.845515   -0.377107    0.443240
C      2.171319   -0.723169    0.745286
H      4.790203   -0.791696    1.308891
H      5.341606    0.064601   -0.130470
H      4.867598   -1.647980   -0.251143
H      3.725789    0.793685   -1.878056
H      0.460876    1.731710   -2.742742
H     -2.831495    1.617953   -1.980874
H     -5.319044    0.463192    0.220139
H     -4.795037   -0.905841    2.225808
H     -2.447003   -1.505911    2.737683
H      2.384628   -1.329570    1.625538
