27
 xtb: 6.6.1 (8d0f1dd)
C      0.713600    3.998400    0.055600
O     -0.490700    3.254900    0.031700
C     -0.411500    1.896400    0.014600
C     -1.645700    1.223900   -0.003200
O     -2.788400    1.942400   -0.002300
C     -1.671600   -0.181100   -0.022000
O     -2.933100   -0.715400   -0.040800
C     -3.068900   -2.123600   -0.070400
C     -0.495800   -0.903400   -0.019800
C      0.737100   -0.240000   -0.001200
C      1.989900   -0.943100    0.003900
C      2.185300   -2.280900    0.016800
C      3.504100   -2.845500    0.022300
O      3.763200   -4.040700    0.034800
C      0.760300    1.161100    0.013700
H      1.297500    3.774600    0.951800
H      1.312600    3.807800   -0.838400
H      0.402200    5.040100    0.072400
H     -3.548100    1.334100   -0.016000
H     -2.629400   -2.579800    0.819600
H     -2.611400   -2.543500   -0.969100
H     -4.140700   -2.306400   -0.084700
H     -0.518100   -1.978400   -0.034800
H      2.872200   -0.314300   -0.000100
H      1.371000   -2.989000    0.025900
H      4.330200   -2.110000    0.013400
H      1.714000    1.661500    0.026500
