27

C      0.736217    3.980316    0.186601
O     -0.487275    3.262103    0.132825
C     -0.420524    1.898248    0.032796
C     -1.641428    1.215144    0.026581
O     -2.816223    1.923267    0.121004
C     -1.704941   -0.181555   -0.077086
O     -2.974336   -0.704087   -0.077488
C     -3.086385   -2.120491   -0.157817
C     -0.518850   -0.908353   -0.174895
C      0.720211   -0.247568   -0.157259
C      1.990426   -0.978478   -0.289318
C      2.231997   -2.150533    0.313980
C      3.535594   -2.818907    0.137186
O      3.773382   -3.895921    0.668802
C      0.758325    1.154470   -0.066472
H      1.328378    3.688624    1.060281
H      1.307942    3.854883   -0.738746
H      0.496646    5.043271    0.287445
H     -3.523701    1.252280    0.094740
H     -2.606810   -2.603887    0.699712
H     -2.679708   -2.494464   -1.103128
H     -4.150717   -2.373052   -0.130189
H     -0.537661   -1.988058   -0.278325
H      2.749269   -0.495421   -0.901295
H      1.521833   -2.660724    0.953761
H      4.273621   -2.299858   -0.496512
H      1.724719    1.648747   -0.067184
