30

C     -3.918043   -0.802302   -0.027970
C     -4.015958    0.587900   -0.011588
C     -2.863973    1.369985    0.003251
C     -1.613342    0.743228    0.001489
C     -1.477745   -0.681783   -0.015138
C     -2.665866   -1.429495   -0.029730
C     -0.119783   -1.316763   -0.016499
C      1.023966   -0.497902   -0.001253
C      0.800309    0.877271    0.014356
C      1.815629    1.816964    0.030460
C      1.168024    3.082126    0.042765
C     -0.201162    2.865348    0.033755
N     -0.418150    1.508282    0.016320
C      3.143776    1.348389    0.030966
C      3.362284   -0.042898    0.015139
C      2.332910   -0.988608   -0.001097
N      2.558585   -2.317590   -0.016132
C      1.466470   -3.125099   -0.030996
C      0.140945   -2.685708   -0.031861
O      4.666583   -0.484206    0.015861
H     -4.822819   -1.406213   -0.039497
H     -4.994628    1.062062   -0.010403
H     -2.967093    2.450283    0.015854
H     -2.649095   -2.515253   -0.042800
H      1.648498    4.052091    0.056749
H     -1.016589    3.573853    0.038522
H      3.984908    2.033862    0.043175
H      1.690029   -4.189653   -0.042834
H     -0.649207   -3.426505   -0.044521
H      4.590538   -1.461665    0.003658
