55
 xtb: 6.6.1 (8d0f1dd)
C     -6.809500    0.812700   -1.952500
C     -5.995800   -0.019500   -0.972000
C     -6.556500    0.095900    0.456200
C     -5.646200   -0.652100    1.441100
C     -4.206000   -0.166900    1.280400
C     -3.788100   -0.304300   -0.192300
O     -4.656700    0.431300   -1.028100
C     -2.377200    0.183800   -0.383600
C     -1.319500   -0.633900    0.058500
C      0.013200   -0.199800   -0.092200
C      0.261800    1.053900   -0.685700
C     -0.797400    1.841700   -1.113100
C     -2.104500    1.408100   -0.961100
C      1.628800    1.559900   -0.867500
O      1.824200    2.667800   -1.401400
C      2.718900    0.730000   -0.402700
C      2.468300   -0.537900    0.196100
C      1.109400   -1.044200    0.363300
O      0.906200   -2.158400    0.881400
C      3.511200   -1.320100    0.635400
C      4.850200   -0.906800    0.517500
C      5.951800   -1.687300    0.963000
C      7.239800   -1.209500    0.814400
C      7.505100    0.032500    0.232600
C      6.446900    0.803000   -0.207100
C      5.128900    0.354600   -0.074500
C      4.041200    1.166900   -0.535400
O      4.351900    2.333100   -1.082000
C      8.917800    0.496300    0.096600
O      5.810100   -2.897200    1.538100
O     -1.629200   -1.808700    0.614500
O     -6.160500   -0.414800    2.735200
O     -7.857100   -0.440400    0.461500
H     -6.723900    1.864000   -1.693700
H     -7.849300    0.507800   -1.897100
H     -6.432900    0.664700   -2.959700
H     -6.040500   -1.084400   -1.257900
H     -6.579900    1.157100    0.749700
H     -5.703300   -1.727500    1.205400
H     -3.531400   -0.754700    1.902000
H     -4.146500    0.883300    1.572200
H     -3.833200   -1.373400   -0.465300
H     -0.577500    2.796500   -1.564900
H     -2.931100    2.011000   -1.298900
H      3.246100   -2.269700    1.078300
H      8.050200   -1.829500    1.165000
H      6.616100    1.766500   -0.660800
H      3.513300    2.794700   -1.359800
H      8.959900    1.495200   -0.326100
H      9.406200    0.500400    1.068700
H      9.471700   -0.183200   -0.548200
H      4.882200   -3.166400    1.607900
H     -0.783500   -2.275100    0.857200
H     -5.627400   -0.886900    3.389300
H     -8.166600   -0.460500    1.379200
