38
 xtb: 6.6.1 (8d0f1dd)
O     -3.826600   -1.255300   -1.975500
C     -2.519400   -1.239400   -1.847100
C     -2.057700   -0.585100   -0.613400
C     -3.093500   -0.211000    0.363500
C     -3.166700    1.088000    0.862400
C     -4.145500    1.443100    1.767100
C     -5.068100    0.498200    2.209600
O     -6.043900    0.791200    3.096400
C     -4.993400   -0.806700    1.722400
C     -4.024600   -1.151900    0.807300
C     -0.746100   -0.297700   -0.348300
O     -0.464600    0.291800    0.861100
C      0.884500    0.504300    0.957400
C      1.520000    0.034400   -0.262400
C      2.942400    0.095000   -0.530900
C      3.464500   -0.301400   -1.766300
C      4.820700   -0.241200   -2.010100
C      5.698600    0.211800   -1.034400
O      7.027000    0.263700   -1.285800
C      5.183600    0.613200    0.210800
O      6.091000    1.049200    1.135900
C      3.828200    0.555500    0.451900
C      0.507700   -0.466000   -1.060400
O      0.668800   -1.000100   -2.259200
O      1.337000    1.015300    1.960100
O     -1.788800   -1.719100   -2.707100
H     -4.116600   -1.684400   -2.806400
H     -2.463700    1.831600    0.521100
H     -4.192800    2.458700    2.130700
H     -6.001200    1.720500    3.370800
H     -5.706800   -1.532200    2.078500
H     -3.971900   -2.168500    0.451300
H      2.804200   -0.656100   -2.537900
H      5.227500   -0.544100   -2.961100
H      7.487100    0.597800   -0.496800
H      5.642900    1.297500    1.956700
H      3.442000    0.867400    1.409300
H     -0.185700   -1.367800   -2.614400
