97
 xtb: 6.6.1 (8d0f1dd)
C     10.718700   -1.659700    1.320300
C     11.884600   -1.033600    0.620500
C     11.743100   -0.208500   -0.431300
C     12.902200    0.438000   -1.173600
C     14.240700   -0.163000   -0.724000
C     14.295700   -0.377200    0.787200
C     13.228900   -1.401600    1.173300
O     15.585400   -0.756200    1.228600
C     12.738200    0.197300   -2.680200
C     12.869900    1.948600   -0.905800
C     10.465500    0.138400   -0.909100
C      9.381400    0.467800   -1.341800
C      8.137500    0.850100   -1.854900
C      6.994700    0.442500   -1.238800
C      5.679200    0.757100   -1.666700
C      4.570500    0.342300   -1.000900
C      3.216200    0.611300   -1.363400
C      2.218200    0.139100   -0.555300
C      0.821900    0.284400   -0.716400
C     -0.083500   -0.213600    0.172400
C     -1.480600   -0.072800    0.012300
C     -2.473500   -0.512900    0.843800
C     -2.209400   -1.245700    2.125600
C     -3.831400   -0.263400    0.476600
C     -4.933300   -0.614200    1.187400
C     -6.252600   -0.337700    0.737200
C     -7.424000   -0.636400    1.358700
C     -7.517800   -1.320700    2.688400
C     -8.659000   -0.279400    0.702400
C     -9.893400   -0.508400    1.164000
C    -11.117900   -0.123400    0.409300
C    -11.764300   -1.141000   -0.447100
O    -10.970500   -0.113500   -1.005600
C    -13.247400   -1.057200   -0.747000
C    -13.731900    0.391300   -0.668400
C    -13.418900    0.936500    0.724500
C    -11.911900    1.053600    1.013700
C    -11.346500    2.345300    0.411600
C    -11.732100    1.102600    2.535700
O    -15.102200    0.510300   -0.988200
C    -11.203500   -2.545700   -0.516400
C      2.959900    1.403200   -2.611000
C      8.155000    1.710900   -3.087600
H     10.636300   -1.265300    2.333000
H     10.863100   -2.736700    1.396000
H      9.790900   -1.460000    0.791400
H     15.057600    0.494200   -1.028400
H     14.383200   -1.130000   -1.213900
H     14.102400    0.566300    1.308700
H     13.520300   -2.384800    0.785400
H     13.171800   -1.488100    2.260800
H     15.840400   -1.578000    0.785800
H     12.675300   -0.867900   -2.893000
H     13.587700    0.611000   -3.218600
H     11.830200    0.670800   -3.044600
H     13.016000    2.159400    0.150900
H     13.652300    2.449500   -1.471300
H     11.907300    2.359200   -1.203200
H      7.086400   -0.170100   -0.349800
H      5.576800    1.353600   -2.560300
H      4.713700   -0.248500   -0.103300
H      2.523700   -0.415600    0.325300
H      0.444500    0.814600   -1.579900
H      0.295200   -0.738800    1.038300
H     -1.790300    0.452400   -0.884900
H     -2.692000   -2.221700    2.103100
H     -1.148700   -1.392200    2.294300
H     -2.616000   -0.684400    2.965700
H     -3.980400    0.255700   -0.463500
H     -4.812400   -1.127100    2.128500
H     -6.315700    0.165900   -0.221500
H     -8.055600   -2.261900    2.584900
H     -8.066300   -0.694000    3.389700
H     -6.539100   -1.527200    3.105700
H     -8.567600    0.209100   -0.260900
H    -10.069700   -1.003600    2.105400
H    -13.436700   -1.454700   -1.746700
H    -13.787700   -1.670500   -0.022100
H    -13.218000    0.983700   -1.432600
H    -13.878200    1.920700    0.832200
H    -13.873300    0.266900    1.459900
H    -10.282100    2.418300    0.624300
H    -11.849500    3.211900    0.832700
H    -11.474700    2.350400   -0.668000
H    -12.043200    0.168000    2.995400
H    -12.343700    1.905600    2.939700
H    -10.695300    1.297300    2.796200
H    -15.622200    0.016900   -0.337300
H    -11.432000   -2.986200   -1.484000
H    -11.649600   -3.156000    0.264700
H    -10.124900   -2.526900   -0.386100
H      1.899400    1.520700   -2.802800
H      3.411100    0.905400   -3.468000
H      3.403900    2.393700   -2.521100
H      9.178500    1.927900   -3.383800
H      7.655700    1.203900   -3.912000
H      7.639900    2.652100   -2.902000
