33

C      5.611003    0.587293   -0.670409
C      4.135708    0.322206   -0.594117
C      3.240021    1.366289   -0.346232
C      1.894852    1.048364   -0.256191
C      1.389476   -0.242321   -0.387212
C      2.277683   -1.277826   -0.618761
C      3.645968   -0.995727   -0.716722
O      1.915976   -2.583336   -0.759167
C     -0.057230   -0.169312   -0.230025
C     -0.439778    1.095328   -0.011365
C      0.766788    1.943141   -0.013027
O      0.843850    3.141417    0.150771
C     -1.834739    1.490240    0.186529
O     -2.186451    2.645632    0.386607
C     -2.846728    0.411960    0.135863
C     -2.458367   -0.914049   -0.092022
C     -1.033372   -1.265330   -0.286406
O     -0.674286   -2.419591   -0.486357
C     -3.420637   -1.932644   -0.139225
C     -4.769852   -1.626883    0.041061
C     -5.160734   -0.307932    0.268199
C     -4.205067    0.705370    0.315335
O     -4.677928    1.969430    0.543002
H      5.807860    1.602823   -1.029765
H      6.063708    0.468555    0.318730
H      6.094915   -0.103878   -1.368400
H      3.573197    2.393428   -0.227405
H      4.338615   -1.818036   -0.891982
H      0.942243   -2.683735   -0.679837
H     -3.126468   -2.966365   -0.315994
H     -5.518443   -2.415701    0.004846
H     -6.212186   -0.066454    0.409159
H     -3.919597    2.597642    0.555488
