33
 xtb: 6.6.1 (8d0f1dd)
C      5.575200    0.590400   -0.671800
C      4.120300    0.285400   -0.577100
C      3.210000    1.338200   -0.316200
C      1.877800    1.048100   -0.229300
C      1.370300   -0.266600   -0.389300
C      2.263800   -1.314200   -0.648800
C      3.638500   -0.992200   -0.735000
O      1.931300   -2.582300   -0.820900
C     -0.062600   -0.200000   -0.233500
C     -0.453800    1.099000    0.012700
C      0.743100    1.969700    0.031500
O      0.801800    3.171100    0.217300
C     -1.823300    1.505700    0.213900
O     -2.149800    2.683900    0.430000
C     -2.816200    0.426800    0.145300
C     -2.438800   -0.910400   -0.102900
C     -1.037900   -1.292000   -0.306800
O     -0.704300   -2.456500   -0.525200
C     -3.400300   -1.913000   -0.161700
C     -4.744700   -1.612200    0.022800
C     -5.131800   -0.315900    0.264900
C     -4.181100    0.720100    0.329900
O     -4.632600    1.947700    0.567000
H      5.749000    1.328600   -1.452400
H      5.924200    1.020200    0.265300
H      6.151200   -0.302700   -0.890200
H      3.558000    2.351400   -0.188100
H      4.310300   -1.812500   -0.934700
H      0.949100   -2.729200   -0.744100
H     -3.077000   -2.924500   -0.353100
H     -5.482400   -2.396500   -0.024400
H     -6.165900   -0.048700    0.411800
H     -3.871500    2.583000    0.587900
