37

O     -0.170808   -0.811521    1.075854
C      0.637427   -0.246017    0.373905
C      2.066876   -0.125134    0.628624
C      2.824956   -0.602945    1.674542
C      4.184841   -0.314904    1.626697
O      4.970826   -0.774208    2.649822
C      4.770222    0.425305    0.570250
O      6.125073    0.611573    0.689679
C      6.764005    1.340750   -0.352777
C      3.968896    0.895463   -0.474209
C      2.618080    0.605345   -0.420110
O      1.688857    0.986664   -1.359037
C      0.457209    0.487053   -0.916119
C     -0.662650    0.671570   -1.627957
C     -2.013136    0.202271   -1.305817
C     -2.639118    0.515921   -0.094878
C     -3.942305    0.078550    0.171246
C     -4.642514   -0.666161   -0.783054
C     -6.032396   -1.158159   -0.548193
C     -6.663834   -0.942623    0.802229
O     -6.643350   -1.725235   -1.452261
C     -4.027252   -0.960329   -2.005852
C     -2.723764   -0.526003   -2.266177
H      2.387647   -1.171414    2.486656
H      5.876935   -0.477742    2.434895
H      6.661798    0.826245   -1.314067
H      6.381052    2.365015   -0.408689
H      7.830838    1.395939   -0.115714
H      4.357318    1.466273   -1.307704
H     -0.587742    1.209166   -2.571216
H     -2.114095    1.092181    0.664397
H     -4.379756    0.332992    1.131901
H     -6.814760    0.124595    0.982220
H     -7.640969   -1.435261    0.824744
H     -6.046628   -1.388154    1.586617
H     -4.558632   -1.534544   -2.762939
H     -2.269148   -0.772514   -3.223392
