39

C     -4.415297   -0.804573    1.884233
O     -3.918978   -1.692607    0.880214
C     -3.661038   -1.018569   -0.286778
C     -4.668932   -0.938014   -1.261759
C     -4.420962   -0.310327   -2.482629
C     -3.158584    0.214910   -2.746705
C     -2.139944    0.106252   -1.795376
C     -2.379737   -0.504907   -0.563848
C     -1.251408   -0.568818    0.394518
O     -1.428214   -0.910652    1.555012
C      0.088929   -0.162571   -0.091153
C      1.273729   -0.338960    0.652900
C      2.487191    0.020166    0.076363
C      2.527219    0.571414   -1.192175
C      1.382506    0.791658   -1.926807
C      0.157239    0.409908   -1.371752
O     -0.933462    0.633927   -2.173098
O      3.780930    0.859316   -1.654216
C      4.679219    0.403729   -0.611542
C      3.867986   -0.123885    0.597821
C      4.277599    0.827657    1.657644
C      5.189448    1.657900    1.165612
O      5.528234    1.487531   -0.157912
O      1.326401   -0.953299    1.871799
C      0.911266   -0.086344    2.930473
Cl    -6.238257   -1.616585   -1.010285
H     -5.468882   -0.570731    1.702487
H     -3.836695    0.123848    1.946654
H     -4.343374   -1.316163    2.848585
H     -5.202255   -0.240122   -3.235804
H     -2.962823    0.696222   -3.702628
H      1.438766    1.229354   -2.918238
H      5.323068   -0.377228   -1.035007
H      4.124054   -1.160958    0.834773
H      3.921085    0.825030    2.675134
H      5.710975    2.457225    1.666641
H      0.239284   -0.643448    3.590029
H      1.790175    0.199153    3.515117
H      0.403540    0.823560    2.589422
