74
 xtb: 6.6.1 (8d0f1dd)
C      7.166700   -1.049100    1.828300
C      5.775000   -0.481700    1.573700
C      5.566700   -0.178500    0.091200
C      4.209000    0.461800   -0.201200
C      3.031700   -0.519100    0.119900
C      1.898200   -0.607100   -0.863400
C      0.574100   -0.204600   -0.528100
C      0.255000    0.648300    0.588900
C      1.040400    1.766000    0.972200
C      0.805700    2.328200    2.212200
C     -0.219300    1.899800    3.070600
C     -1.168400    1.001600    2.549700
C     -0.954800    0.422400    1.277900
C     -1.989700   -0.331100    0.660000
C     -1.803800   -0.820700   -0.637800
C     -0.506400   -0.793200   -1.221300
C     -0.294000   -1.419400   -2.470300
C      1.018500   -1.617900   -2.924200
C      2.067600   -1.313700   -2.038900
Br     3.741000   -2.069700   -2.551900
O      1.322600   -2.171400   -4.086100
C     -1.408000   -1.874100   -3.273700
O     -1.228300   -2.326900   -4.434200
C     -2.724000   -1.802100   -2.689200
C     -3.841300   -2.208600   -3.444900
C     -5.107100   -2.075000   -2.867100
C     -5.306800   -1.682100   -1.552000
C     -4.163500   -1.464700   -0.728800
C     -2.902000   -1.375100   -1.351900
C     -4.259300   -1.243900    0.687500
C     -3.213200   -0.565700    1.345700
C     -3.353000   -0.144200    2.689100
C     -4.508000   -0.501100    3.411900
C     -5.430500   -1.352500    2.796500
C     -5.324100   -1.767200    1.477300
O     -6.116500   -2.696700    0.958100
Br    -6.876100   -1.983400    3.883100
O     -4.741600   -0.127800    4.658000
C     -2.347400    0.677400    3.319600
O     -2.494400    1.104500    4.495100
O     -6.512000   -1.416200   -1.064600
Br    -6.611100   -2.432800   -3.998000
O     -3.767000   -2.653600   -4.686700
O     -0.298200    2.437800    4.275900
Br     1.839600    3.797400    2.859600
C      1.855400    2.499900   -0.036400
C      0.954800    3.584000   -0.691200
C      1.825700    4.561900   -1.471700
O     -0.036600    2.991000   -1.500800
O      4.143100    0.978100   -1.513400
H      7.302000   -1.264300    2.884900
H      7.930400   -0.338800    1.521800
H      7.310500   -1.970000    1.268200
H      5.027800   -1.198800    1.917000
H      5.645100    0.435800    2.150900
H      5.678300   -1.096100   -0.491300
H      6.338400    0.523100   -0.233600
H      4.105600    1.333500    0.451400
H      2.632900   -0.259500    1.098900
H      3.452700   -1.526500    0.182400
H      0.489100   -2.378600   -4.583700
H     -6.804100   -2.995100    1.580200
H     -3.990700    0.442900    4.975100
H     -7.224400   -1.590200   -1.705700
H     -2.814500   -2.672100   -4.973100
H     -1.110000    2.099000    4.737100
H      2.697800    3.008600    0.427700
H      2.212600    1.854100   -0.832400
H      0.398600    4.118100    0.088200
H      2.462600    4.022000   -2.169000
H      2.453700    5.127000   -0.790100
H      1.195800    5.256400   -2.021800
H      0.365700    2.761300   -2.350100
H      4.659800    0.418900   -2.107200
