74

C      6.818706   -1.177571    2.398701
C      5.452731   -0.761722    1.872743
C      5.537287   -0.227995    0.442159
C      4.207122    0.350135   -0.073885
C      3.056069   -0.685963   -0.068487
C      1.914535   -0.602850   -1.094660
C      0.595705   -0.184162   -0.661672
C      0.316438    0.682262    0.442126
C      1.123637    1.808891    0.825347
C      0.992685    2.371596    2.112485
C     -0.046343    1.970628    2.937359
C     -1.016290    1.095893    2.428866
C     -0.882750    0.480861    1.164905
C     -1.931954   -0.289128    0.604151
C     -1.792568   -0.786440   -0.706842
C     -0.517297   -0.731113   -1.331740
C     -0.318040   -1.282290   -2.612322
C      0.959359   -1.474844   -3.150777
C      2.077359   -1.206107   -2.362838
Br     3.787096   -1.767808   -3.007508
O      1.143006   -1.990058   -4.406216
C     -1.505825   -1.661979   -3.391056
O     -1.403995   -1.884181   -4.594458
C     -2.821605   -1.746119   -2.718862
C     -3.929378   -2.198973   -3.452701
C     -5.165691   -2.241163   -2.841233
C     -5.272215   -1.884312   -1.490246
C     -4.141375   -1.537043   -0.678616
C     -2.911617   -1.364531   -1.361620
C     -4.163690   -1.320023    0.755552
C     -3.115730   -0.561539    1.336321
C     -3.233424   -0.136094    2.681998
C     -4.245695   -0.603637    3.526109
C     -5.178254   -1.499498    3.034413
C     -5.133480   -1.849733    1.674376
O     -5.957698   -2.866099    1.247133
Br    -6.473313   -2.292415    4.183569
O     -4.300732   -0.248762    4.849108
C     -2.231951    0.810310    3.216744
O     -2.423355    1.383365    4.288962
O     -6.538748   -1.722850   -0.965215
Br    -6.731466   -2.697073   -3.825218
O     -3.847342   -2.540397   -4.776007
O     -0.138201    2.506175    4.196989
Br     2.197482    3.716859    2.733382
C      1.843392    2.608225   -0.272622
C      0.927119    3.710782   -0.842751
C      1.717096    4.756906   -1.616923
O     -0.039538    3.117505   -1.721137
O      4.428292    0.921214   -1.354609
H      6.733464   -1.580325    3.416152
H      7.500566   -0.325414    2.431562
H      7.272432   -1.946616    1.769659
H      4.782550   -1.625931    1.910985
H      5.035194    0.003938    2.537997
H      5.878386   -1.018694   -0.240283
H      6.307349    0.550168    0.384602
H      3.940472    1.179911    0.587213
H      2.621928   -0.699512    0.943576
H      3.484821   -1.697455   -0.146397
H      0.289023   -1.975041   -4.888814
H     -6.485824   -3.166855    2.005596
H     -3.938786    0.662249    4.945029
H     -7.183847   -1.962400   -1.655000
H     -2.931873   -2.378445   -5.085387
H     -1.010011    2.271888    4.582841
H      2.771545    3.039586    0.115012
H      2.132970    1.959223   -1.101889
H      0.372449    4.207746   -0.045017
H      2.270050    4.300723   -2.439021
H      2.441566    5.270571   -0.973004
H      1.042660    5.492038   -2.060540
H      0.403922    2.972895   -2.571737
H      4.583439    0.198617   -1.996412
