32

C     -1.042896   -2.955208   -1.089674
S     -2.204550   -1.572739   -1.181705
C     -1.511298   -0.413230   -0.031640
C     -2.281024    0.336021    0.849390
S     -1.291272    1.369140    1.811923
C      0.128664    0.849533    1.047087
C     -0.111539   -0.114029    0.068404
N      0.918842   -0.650133   -0.655978
C      2.129910   -0.142267   -0.311327
C      3.326326   -0.646688   -1.013812
O      3.281730   -1.510676   -1.882715
N      4.522432   -0.088337   -0.626027
C      4.637805    0.858267    0.347491
N      3.618019    1.318158    0.993093
C      2.347625    0.819418    0.667379
N      1.339071    1.349809    1.388849
N      5.879491    1.305345    0.618500
C     -3.774133    0.380060    1.069365
C     -4.526526    1.117902   -0.052006
O     -4.271274    2.520662   -0.046154
O     -4.240715   -0.962746    1.193890
H     -1.526057   -3.847568   -1.497604
H     -0.758487   -3.164323   -0.054759
H     -0.151157   -2.756351   -1.688380
H      5.339954   -0.428381   -1.107249
H      5.976292    2.010933    1.339908
H      6.713614    0.990079    0.148256
H     -3.997945    0.874456    2.022169
H     -4.260023    0.730981   -1.040370
H     -5.606560    0.967855    0.057797
H     -4.602015    2.879169    0.795814
H     -4.002307   -1.425112    0.368550
