21

C     -2.877831   -1.485659    0.076108
N     -2.114885   -0.252601   -0.040882
C     -0.736468   -0.259178    0.005516
N      0.003092   -1.306712    0.150850
C      1.369218   -1.247480    0.189248
O      2.016409   -2.282710    0.330104
N      2.023102   -0.024908    0.069858
C      1.384446    1.186489   -0.091039
O      1.927979    2.277183   -0.198870
C     -0.109947    1.087525   -0.129101
N     -0.834523    2.155779   -0.276329
C     -2.196422    2.010021   -0.304606
N     -2.849873    0.892130   -0.197277
C      3.472608   -0.042585    0.119889
H     -2.672683   -1.971483    1.035648
H     -2.614152   -2.175435   -0.732293
H     -3.955864   -1.298654    0.018844
H     -2.780365    2.937468   -0.430934
H      3.790601   -0.475647    1.074070
H      3.906619    0.955381    0.019125
H      3.848939   -0.678925   -0.687929
