92
 xtb: 6.6.1 (8d0f1dd)
C      4.348000    2.453600   -1.798800
C      3.885900    1.822500   -0.489800
C      5.028000    1.080300    0.202100
C      4.574500    0.298200    1.390600
O      5.530600    0.024600    2.264400
C      3.291400   -0.139200    1.533500
C      2.892500   -0.974100    2.642700
O      3.657200   -1.182000    3.615700
C      1.630000   -1.678300    2.493800
C      1.166500   -2.568300    3.487900
O      1.745500   -2.654200    4.691500
C      0.090400   -3.406300    3.207300
C     -0.445000   -3.443600    1.935400
C     -0.001800   -2.586500    0.937100
C     -0.432400   -2.719000   -0.475300
C      0.234500   -3.622700   -1.297900
C     -0.051800   -3.724200   -2.641000
C     -1.017500   -2.900200   -3.214800
O     -1.252700   -3.015700   -4.526500
C     -1.713700   -1.980900   -2.402200
C     -2.756000   -1.129600   -2.951500
O     -3.157400   -1.258600   -4.135900
C     -3.351300   -0.170600   -2.059900
C     -4.443800    0.559900   -2.433900
O     -4.998100    0.493800   -3.625400
C     -5.131100    1.442900   -1.447100
C     -5.079700    0.795000   -0.061800
C     -5.792600   -0.555500   -0.037000
C     -3.608400    0.681000    0.358800
O     -3.555200   -0.104700    1.548700
C     -2.497800    0.005800    2.344900
C     -2.581300   -0.931600    3.506600
O     -1.599100    0.800100    2.152200
C     -2.672100    0.072900   -0.736400
C     -1.478900    1.024800   -0.981800
O     -1.928300    2.222200   -1.598900
C     -1.013400    3.183100   -1.766500
C     -1.593700    4.393200   -2.423400
O      0.136200    3.062800   -1.399100
O     -2.116700   -1.111400   -0.181900
C     -1.417500   -1.913300   -1.029600
C      0.978100   -1.642500    1.248600
O      1.316200   -0.760600    0.272700
C      2.190400    0.311800    0.613800
C      1.382700    1.433100    1.335900
O      2.210700    2.222400    2.175500
C      2.253900    1.933900    3.484400
C      3.218900    2.821800    4.202000
O      1.594400    1.053900    3.991900
C      2.723000    0.858000   -0.727000
O      3.152400   -0.232000   -1.545000
C      2.288700   -0.747800   -2.418400
C      2.894200   -1.903400   -3.154400
O      1.170600   -0.315100   -2.605100
H      4.690900    1.687400   -2.488800
H      5.161000    3.147900   -1.611400
H      3.524800    2.993800   -2.259400
H      3.508800    2.604900    0.173200
H      5.477300    0.373200   -0.501200
H      5.808900    1.771900    0.518400
H      5.166300   -0.524900    3.006000
H      2.564600   -2.107800    4.697700
H     -0.261900   -4.061700    3.986100
H     -1.219200   -4.156200    1.698000
H      0.998900   -4.247300   -0.861700
H      0.462700   -4.427000   -3.275200
H     -1.996200   -2.414600   -4.776300
H     -4.494400   -0.143300   -4.199700
H     -4.625400    2.410200   -1.424000
H     -6.159000    1.596100   -1.773700
H     -5.571500    1.454500    0.657700
H     -5.291400   -1.275400   -0.678100
H     -6.816500   -0.435200   -0.378300
H     -5.801300   -0.950400    0.973800
H     -3.219800    1.680500    0.594700
H     -1.681400   -0.847500    4.108200
H     -2.690100   -1.945900    3.133400
H     -3.457100   -0.688100    4.102100
H     -0.736700    0.534400   -1.623700
H     -1.000000    1.249200   -0.024200
H     -2.010400    5.037300   -1.651500
H     -0.810300    4.936300   -2.942000
H     -2.387300    4.101000   -3.102900
H      0.587200    0.976900    1.934000
H      0.953100    2.118800    0.604000
H      2.878000    2.983500    5.219600
H      4.182000    2.315100    4.238900
H      3.331600    3.757200    3.665000
H      1.897100    1.361400   -1.244700
H      3.828000   -1.590600   -3.612800
H      2.199100   -2.258800   -3.907700
H      3.111700   -2.696700   -2.444600
