76

C     -9.012265    1.335732    1.386635
C     -7.526827    1.406788    1.061522
C     -6.844011    0.067158    1.314090
C     -5.361520    0.169260    0.946053
C     -5.184823    0.687619   -0.492837
C     -6.038824    1.947170   -0.738716
O     -7.397446    1.742017   -0.317534
C     -6.137201    2.311761   -2.220590
C     -3.697298    0.943158   -0.705139
O     -3.257389    1.906562   -1.329443
C     -2.727298   -0.049323   -0.153029
C     -1.364080    0.024026   -0.486514
C     -0.439352   -0.911163    0.023369
C     -0.900987   -1.929819    0.885709
C     -2.257957   -1.993946    1.221175
C     -3.177354   -1.055850    0.715710
C     -4.630393   -1.170298    1.106181
O     -5.254145   -2.170078    0.308237
O      0.047610   -2.814350    1.338751
C     -0.350278   -3.786898    2.294090
C      0.992427   -0.815983   -0.334642
C      1.491231   -1.458145   -1.491006
C      2.845378   -1.344414   -1.817795
C      3.711487   -0.595015   -1.007919
C      3.238544    0.042233    0.134269
C      1.879416   -0.066636    0.468092
O      1.361859    0.548749    1.587475
C      4.163747    0.828939    0.972533
O      3.720290    1.493480    1.904423
C      5.611911    0.815500    0.651065
C      6.044162    0.241852   -0.483955
C      5.130393   -0.486739   -1.393459
O      5.539859   -0.993220   -2.430836
C      7.482082    0.356667   -0.908055
C      8.142865    1.539108   -0.194032
O      7.934443    1.393909    1.211062
C      6.550948    1.532254    1.601839
C      6.500192    0.988103    3.030080
C      9.643041    1.566251   -0.449105
O      0.582039   -2.181758   -2.224035
C      0.997127   -2.670264   -3.492592
O     -0.878969    1.005924   -1.323290
H     -9.177903    1.084906    2.438668
H     -9.493825    2.297029    1.177333
H     -9.517070    0.589831    0.762731
H     -7.070417    2.198385    1.668763
H     -6.951766   -0.225522    2.364940
H     -7.324565   -0.707466    0.703179
H     -4.897328    0.892548    1.634688
H     -5.496943   -0.085943   -1.207163
H     -5.632885    2.807258   -0.191090
H     -6.813402    3.163858   -2.355492
H     -5.172717    2.576945   -2.658130
H     -6.564679    1.483693   -2.797339
H     -2.629977   -2.771256    1.882948
H     -4.702318   -1.488362    2.153408
H     -4.576523   -2.787949   -0.016784
H      0.537613   -4.360562    2.576833
H     -0.744167   -3.315132    3.200368
H     -1.074059   -4.486769    1.864204
H      3.254075   -1.834273   -2.697215
H      2.063462    1.096779    2.002563
H      7.564790    0.505507   -1.990695
H      7.989732   -0.582233   -0.654264
H      7.711489    2.492673   -0.526069
H      6.318496    2.604065    1.610465
H      6.709636   -0.088043    3.045944
H      7.272114    1.464361    3.645751
H      5.535716    1.158352    3.514936
H      9.863130    1.671644   -1.515654
H     10.104688    2.402278    0.087330
H     10.122798    0.653677   -0.078438
H      0.127703   -3.127599   -3.974556
H      1.345636   -1.857278   -4.138140
H      1.761652   -3.445968   -3.382373
H     -1.614818    1.620243   -1.539989
