30
 xtb: 6.6.1 (8d0f1dd)
C     -4.663100   -0.281800   -1.293500
C     -3.360100   -0.135600   -0.582300
C     -3.302900    0.090700    0.778100
C     -2.082200    0.214900    1.453100
O     -2.134300    0.433400    2.768500
C     -0.870100    0.109700    0.737700
C      0.405400    0.238500    1.420900
O      0.454500    0.441300    2.659700
C      1.617800    0.126800    0.635500
C      2.885900    0.248000    1.250400
O      3.039500    0.467200    2.556200
C      4.048400    0.138900    0.485400
C      3.986400   -0.087600   -0.879500
O      5.074800   -0.198400   -1.650200
C      2.732900   -0.208300   -1.495100
C      1.572700   -0.103900   -0.755400
C      0.285600   -0.240600   -1.463500
O      0.238400   -0.443100   -2.671800
C     -0.936600   -0.121900   -0.652200
C     -2.159000   -0.241200   -1.288800
H     -5.486900    0.054600   -0.672100
H     -4.653200    0.284700   -2.221000
H     -4.823600   -1.328300   -1.547700
H     -4.202100    0.180300    1.367500
H     -1.213700    0.503100    3.124500
H      2.148200    0.525300    2.983900
H      4.991200    0.237900    1.000800
H      5.894700   -0.102000   -1.137300
H      2.673000   -0.384700   -2.557400
H     -2.161300   -0.418100   -2.354100
