30

C     -4.704843   -0.285716   -1.279899
C     -3.382241   -0.124094   -0.589852
C     -3.324333    0.079507    0.793413
C     -2.093351    0.198143    1.437467
O     -2.137327    0.403259    2.790343
C     -0.898060    0.105399    0.714023
C      0.407097    0.229581    1.388499
O      0.456845    0.421002    2.602854
C      1.655338    0.124637    0.610564
C      2.905256    0.241717    1.235986
O      3.053236    0.456780    2.580286
C      4.083315    0.141773    0.498023
C      4.008973   -0.076581   -0.872704
O      5.132583   -0.181389   -1.636111
C      2.779344   -0.195591   -1.511516
C      1.597958   -0.094375   -0.765879
C      0.295471   -0.221470   -1.449481
O      0.246268   -0.415604   -2.657942
C     -0.949119   -0.111925   -0.661633
C     -2.186755   -0.231721   -1.311745
H     -5.484173    0.290996   -0.770752
H     -4.653655    0.078047   -2.311515
H     -4.994767   -1.340851   -1.290068
H     -4.238890    0.148255    1.379611
H     -1.216029    0.471604    3.124786
H      2.160006    0.507909    2.988129
H      5.038417    0.236036    1.005974
H      5.915193   -0.080060   -1.068047
H      2.745886   -0.366406   -2.585943
H     -2.217643   -0.408862   -2.386871
