19
 xtb: 6.6.1 (8d0f1dd)
O     -1.271300    2.551200   -0.344200
C     -1.193300    1.226100   -0.300000
C     -2.367400    0.495600   -0.557200
C     -2.359600   -0.877900   -0.528700
C     -1.183000   -1.566600   -0.243000
C     -0.011000   -0.874300    0.014600
C      1.214900   -1.636200    0.313200
O      1.236700   -2.860900    0.342800
C      2.427100   -0.847700    0.577700
C      2.430300    0.488200    0.552600
C      1.227200    1.275600    0.259000
O      1.277700    2.512400    0.246700
C      0.003300    0.536800   -0.009800
H     -0.387100    2.949500   -0.147500
H     -3.263500    1.053900   -0.775500
H     -3.266200   -1.426200   -0.727600
H     -1.158700   -2.645100   -0.216100
H      3.319400   -1.416800    0.795100
H      3.324800    1.062300    0.748100
