65
 xtb: 6.6.1 (8d0f1dd)
C     -1.441200   -2.416300   -2.939000
C     -1.897000   -1.159600   -2.203400
C     -2.064600   -1.406900   -0.685400
C     -0.733400   -1.706500   -0.052500
C      0.262800   -0.681600    0.025000
C     -0.067000    0.682900   -0.014100
C     -1.257300    1.228800    0.557200
C     -1.744500    2.437300    0.128300
C     -1.050300    3.168100   -0.924000
C      0.317900    2.757400   -1.188100
C      0.849200    1.560100   -0.658100
C      2.210000    1.194600   -0.808900
C      2.645500   -0.082300   -0.288600
C      1.642400   -1.040900    0.031800
C      1.956900   -2.364400    0.418100
C      3.308400   -2.740200    0.565900
O      3.694400   -3.938200    0.984000
C      4.291800   -1.802400    0.270100
C      3.990600   -0.521400   -0.150100
O      5.114900    0.203800   -0.389600
C      5.046400    1.591800   -0.476000
O      4.377000    2.028900   -1.620600
C      3.019200    2.131800   -1.504500
C      2.481800    3.236100   -2.126700
C      1.129300    3.563000   -2.009400
O      0.689200    4.641800   -2.641900
C      0.929700   -3.357200    0.664800
C     -0.418200   -3.010600    0.241300
O     -1.409700   -3.928100    0.090600
C     -1.216400   -5.307500    0.350700
O      1.214600   -4.481500    1.141300
O     -1.550600    4.155300   -1.507200
O     -2.857600    2.906100    0.751900
C     -3.612400    3.983900    0.223000
C     -1.829700    0.603300    1.797700
C     -1.041800    1.119500    3.026800
C     -1.614800    0.509400    4.305000
O     -1.008200    2.527600    3.088700
O     -3.093500   -0.641400   -2.743900
H     -1.416100   -2.226800   -4.009200
H     -0.445100   -2.698100   -2.610100
H     -2.122100   -3.240400   -2.739300
H     -1.161800   -0.358800   -2.352600
H     -2.730800   -2.254500   -0.531100
H     -2.527500   -0.512000   -0.279600
H      2.877100   -4.481300    1.175100
H      5.328200   -2.076900    0.374800
H      6.081600    1.926400   -0.576800
H      4.579600    2.013100    0.427400
H      3.132300    3.884700   -2.689400
H     -0.276500    4.765100   -2.420200
H     -0.415600   -5.724900   -0.262200
H     -2.165600   -5.769100    0.084600
H     -0.993300   -5.491600    1.402400
H     -3.930300    3.783300   -0.801100
H     -3.049900    4.918600    0.245700
H     -4.480900    4.056400    0.875000
H     -1.732500   -0.479000    1.789600
H     -2.877800    0.884400    1.902900
H      0.010000    0.828400    2.915900
H     -2.668900    0.757800    4.402700
H     -1.080700    0.899200    5.167700
H     -1.508000   -0.570600    4.283900
H     -1.913900    2.850500    3.201200
H     -3.775400   -1.328300   -2.707900
