162

C    -23.204822    2.211242   -2.354329
C    -23.265070    1.067611   -1.368636
C    -22.207455    0.539591   -0.697553
C    -22.365070   -0.651699    0.281627
C    -23.822347   -0.687054    0.812707
C    -24.850923   -0.682145   -0.299347
C    -24.647978    0.502060   -1.201351
O    -25.599900    0.988896   -1.813432
C    -21.475010   -0.549474    1.544821
C    -22.057116   -1.982036   -0.443116
C    -20.898361    1.194124   -0.837316
C    -19.688578    0.616958   -0.892890
C    -18.412078    1.326423   -1.016191
C    -17.286556    0.689096   -0.621522
C    -15.939082    1.225846   -0.621459
C    -14.873982    0.529119   -0.190830
C    -13.483443    1.003287   -0.166053
C    -12.537548    0.188795    0.349752
C    -11.114689    0.449416    0.422774
C    -10.235143   -0.374058    1.020114
C     -8.813536   -0.089331    1.014891
C     -7.819319   -0.773514    1.618813
C     -8.016115   -1.988275    2.488554
C     -6.448505   -0.301483    1.407125
C     -5.317140   -0.851090    1.877441
C     -4.013298   -0.301510    1.555480
C     -2.801838   -0.769159    1.918721
C     -2.573640   -1.979442    2.790566
C     -1.618040   -0.054132    1.428078
C     -0.333086   -0.390675    1.625089
C      0.761886    0.387315    1.074480
C      2.084415    0.148922    1.185829
C      2.686318   -1.003760    1.954924
C      3.011161    1.072641    0.522187
C      4.346808    0.947689    0.441302
C      5.307173    1.899547   -0.236192
C      5.845509    1.455222   -1.653095
C      4.729471    0.986333   -2.609567
C      6.530295    2.669871   -2.328019
O      6.911344    0.487552   -1.605259
C      6.655729   -0.790905   -1.039377
C      7.436715   -1.853515   -1.855268
C      7.948883   -2.940058   -0.917460
C      8.887549   -2.342880    0.144143
C      8.442004   -0.916342    0.541858
O      7.026543   -0.790718    0.351437
C      8.782038   -0.539923    1.985896
O     10.198154   -0.609417    2.185026
C     10.593108   -0.841113    3.461552
O      9.831425   -0.965485    4.414254
C     12.094499   -0.947720    3.607429
C     12.938987   -0.578209    2.385532
C     13.014431   -1.705919    1.346730
C     14.093488   -1.464611    0.284655
C     13.792353   -0.277223   -0.634271
C     14.878698   -0.037127   -1.691518
C     16.206700    0.418613   -1.078710
C     17.215678    0.839002   -2.150838
C     18.504541    1.426255   -1.558837
C     19.389672    0.377892   -0.878043
C     20.631566    0.973741   -0.199796
C     21.920494    0.950721   -1.043043
C     21.833267    1.805222   -2.305630
C     23.103709    1.417020   -0.186756
O      8.936063   -3.271626    1.234695
O      8.633940   -3.946934   -1.675687
O      6.600775   -2.448684   -2.861516
O      4.688850    3.190983   -0.265737
C    -13.217635    2.379370   -0.732688
C    -18.447087    2.718287   -1.600413
H    -23.499907    3.147543   -1.865593
H    -23.868861    2.039350   -3.209891
H    -22.207829    2.346404   -2.787466
H    -23.985125   -1.567364    1.446247
H    -23.996613    0.188391    1.453040
H    -24.814220   -1.596318   -0.899526
H    -25.849390   -0.609818    0.144239
H    -21.578943    0.429434    2.026861
H    -20.414837   -0.707534    1.330127
H    -21.752490   -1.311585    2.282379
H    -22.357706   -2.842683    0.166685
H    -20.988882   -2.101240   -0.652947
H    -22.580562   -2.056043   -1.403690
H    -20.955130    2.280363   -0.890798
H    -19.605523   -0.463250   -0.832900
H    -17.370257   -0.324235   -0.232580
H    -15.812674    2.243300   -0.971268
H    -15.031359   -0.484728    0.174090
H    -12.837393   -0.779874    0.749541
H    -10.741997    1.352228   -0.048699
H    -10.583330   -1.282383    1.499851
H     -8.545922    0.786249    0.421505
H     -9.062851   -2.274226    2.610381
H     -7.624099   -1.802086    3.496001
H     -7.495545   -2.855195    2.065674
H     -6.357230    0.586993    0.780299
H     -5.356071   -1.739186    2.496528
H     -4.053463    0.585776    0.918870
H     -1.943090   -1.721345    3.650647
H     -2.081357   -2.773877    2.220439
H     -3.490583   -2.398601    3.205047
H     -1.827160    0.838151    0.835461
H     -0.084758   -1.274309    2.199993
H      0.440928    1.254615    0.493625
H      3.241494   -1.669059    1.283418
H      1.948960   -1.621872    2.469585
H      3.370498   -0.634436    2.729475
H      2.549145    1.938028    0.044598
H      4.828352    0.104853    0.928108
H      6.168829    2.003316    0.433646
H      5.150413    0.694152   -3.578999
H      3.983397    1.769334   -2.779254
H      4.200573    0.104493   -2.231880
H      7.027855    2.368300   -3.257678
H      7.311864    3.079327   -1.679837
H      5.824771    3.468114   -2.570637
H      5.589875   -1.035845   -1.083763
H      8.273020   -1.393182   -2.396525
H      7.102047   -3.454760   -0.446974
H      9.913181   -2.297343   -0.241214
H      8.949156   -0.201179   -0.119810
H      8.230816   -1.187423    2.679985
H      8.455830    0.489282    2.180547
H     12.365251   -0.254375    4.413871
H     12.333621   -1.964167    3.939311
H     13.955597   -0.356892    2.734433
H     12.556661    0.340815    1.926848
H     13.249178   -2.648229    1.856124
H     12.043570   -1.843936    0.860310
H     14.187040   -2.370092   -0.326229
H     15.054602   -1.325693    0.790100
H     12.840475   -0.458986   -1.149061
H     13.664491    0.639727   -0.048369
H     15.032118   -0.947994   -2.284441
H     14.516543    0.734049   -2.382445
H     16.024627    1.260559   -0.401931
H     16.629416   -0.395408   -0.481023
H     16.756454    1.602902   -2.790728
H     17.456840   -0.014607   -2.797644
H     18.247269    2.217913   -0.844728
H     19.058169    1.908673   -2.368969
H     19.677608   -0.404152   -1.590146
H     18.802342   -0.116352   -0.093922
H     20.423268    1.993981    0.152127
H     20.821645    0.378881    0.704854
H     22.121256   -0.085587   -1.348763
H     21.529799    2.831256   -2.071076
H     22.799987    1.846759   -2.817238
H     21.116405    1.384377   -3.017000
H     22.957795    2.445135    0.165944
H     23.228716    0.771953    0.690752
H     24.039501    1.384330   -0.755860
H      8.071267   -3.267618    1.693993
H      9.064037   -4.534752   -1.017987
H      7.097455   -3.237577   -3.169196
H      4.213680    3.293233   -1.104385
H    -13.739325    3.140182   -0.141970
H    -13.561697    2.441875   -1.771389
H    -12.164395    2.660806   -0.742168
H    -19.135971    2.767398   -2.452664
H    -17.479329    3.044864   -1.992013
H    -18.771666    3.447196   -0.849021
