67

C     -5.954152   -0.707459   -1.235079
C     -4.762980   -1.282228   -0.475078
C     -5.195185   -1.900514    0.867479
O     -6.031820   -3.044120    0.657200
C     -3.946454   -2.336980    1.662257
N     -4.324059   -2.815535    3.002602
C     -2.951376   -1.186858    1.762562
C     -2.635281   -0.650880    0.367678
O     -1.748264    0.456289    0.527412
C     -1.213389    0.911435   -0.723993
C     -1.820758    2.277254   -1.045260
C     -1.370197    3.346375   -0.040183
C     -1.977531    4.709876   -0.432318
C     -2.039917    5.775252    0.635342
O     -2.359798    4.957944   -1.579169
O     -1.822323    3.030988    1.282252
C      0.159652    3.479804   -0.042837
C      0.928284    2.179536   -0.194929
C      2.323449    2.187200   -0.018676
O      2.899593    3.395046    0.293208
C      3.087003    1.016469   -0.163497
C      2.460529   -0.177877   -0.498596
C      1.065173   -0.191193   -0.691729
O      0.396424   -1.343343   -1.032671
C      0.289675    0.975961   -0.549998
C      3.255224   -1.419293   -0.648570
C      4.734959   -1.389695   -0.490954
C      5.535117   -2.540364   -0.666393
O      4.905230   -3.707655   -1.002726
C      5.684351   -4.885537   -1.158391
C      6.924402   -2.442535   -0.498762
C      7.520510   -1.227518   -0.162506
C      6.733526   -0.095614    0.009054
C      5.344614   -0.177304   -0.155272
C      4.546443    1.046476    0.031971
O      5.092119    2.101449    0.346631
O      2.638204   -2.450119   -0.900871
O     -3.833080   -0.214187   -0.270335
H     -6.690700   -1.478626   -1.478160
H     -6.446501    0.079600   -0.653426
H     -5.619776   -0.241881   -2.169091
H     -4.299018   -2.045927   -1.113657
H     -5.754202   -1.162822    1.459477
H     -6.945059   -2.714245    0.582298
H     -3.477475   -3.182819    1.142387
H     -3.524710   -3.267023    3.443236
H     -5.032304   -3.543519    2.880363
H     -3.371703   -0.377484    2.374970
H     -2.027280   -1.504096    2.261269
H     -2.152312   -1.432760   -0.231988
H     -1.463444    0.232322   -1.549867
H     -1.533228    2.570194   -2.063882
H     -2.915138    2.200429   -1.022740
H     -2.395611    6.711812    0.195475
H     -1.044405    5.945348    1.051156
H     -2.735153    5.476277    1.422513
H     -1.947711    2.059257    1.329505
H      0.471967    3.957006    0.895404
H      0.471139    4.131532   -0.870597
H      3.864514    3.259298    0.430544
H      1.051656   -2.080329   -1.073805
H      6.398239   -4.780125   -1.981630
H      5.004746   -5.704804   -1.411281
H      6.191204   -5.149994   -0.224701
H      7.577668   -3.301244   -0.624669
H      8.599408   -1.165763   -0.036469
H      7.207273    0.849838    0.270512
