49
 xtb: 6.6.1 (8d0f1dd)
C     -4.535300    1.163000   -1.715000
C     -3.559300    1.138600   -0.554800
C     -3.200000   -0.242400    0.042300
C     -1.817500    0.120500    0.651000
C     -1.294700    1.083200   -0.379800
C      0.036800    1.275000   -0.610100
C      0.527800    2.330500   -1.467500
C      1.858400    2.544700   -1.570700
C      2.849500    1.754200   -0.889000
C      2.351300    0.605800   -0.134500
C      0.986300    0.375200    0.021900
C      0.521400   -0.785500    0.733600
C     -0.865800   -1.016400    0.973800
O     -1.321400   -2.020700    1.552100
C      1.441600   -1.732300    1.255900
O      1.075500   -2.842400    1.899900
C      2.795000   -1.466000    1.101900
C      3.271000   -0.315800    0.432000
C      4.675300   -0.389300    0.477900
C      5.010700   -1.544300    1.154000
N      3.875400   -2.188000    1.525900
C      6.351000   -2.087900    1.479000
O      4.058700    2.034300   -0.965000
C     -0.429800    3.207500   -2.203400
O     -2.299400    1.689800   -0.993000
O     -1.947500    0.874200    1.856600
C     -3.008500   -1.304400   -1.040600
C     -4.219300   -0.710900    1.072900
H     -5.472100    0.707900   -1.410500
H     -4.720800    2.192300   -2.006800
H     -4.131000    0.629100   -2.568800
H     -3.924600    1.785000    0.254400
H      2.242400    3.351800   -2.178400
H      0.083300   -2.874600    1.944000
H      5.351000    0.328600    0.060800
H      3.820300   -3.056500    2.033700
H      6.478900   -2.164000    2.557400
H      7.119600   -1.435000    1.078600
H      6.472300   -3.081800    1.052000
H     -1.046400    2.614600   -2.874900
H      0.113100    3.951700   -2.778600
H     -1.097000    3.710200   -1.506800
H     -2.177500    0.270000    2.578700
H     -2.282900   -0.978900   -1.784500
H     -2.645300   -2.224600   -0.589100
H     -3.953400   -1.517700   -1.530500
H     -5.159500   -0.939600    0.579100
H     -3.856900   -1.612100    1.561800
H     -4.400500    0.056600    1.821100
