41
 xtb: 6.6.1 (8d0f1dd)
C     -4.137700    0.428600    1.340500
C     -4.059200    0.681700   -0.167100
C     -5.385900    1.215700   -0.699600
C     -2.911500    1.638400   -0.495800
C     -1.565900    1.026700   -0.182800
C     -1.490000   -0.397500   -0.497500
C     -2.646000   -1.119500   -0.864400
C     -2.558800   -2.457100   -1.284300
C     -1.351800   -3.113900   -1.327700
C     -0.199900   -2.432000   -0.938500
C     -0.279800   -1.094700   -0.529900
O      0.918600   -0.578400   -0.206500
C      1.861300   -1.571100   -0.386400
C      1.204400   -2.801400   -0.861800
O      1.753200   -3.870500   -1.124300
C      3.186800   -1.434600   -0.156700
C      3.914300   -0.289900    0.305500
C      5.304400   -0.400000    0.478100
C      6.053600    0.662900    0.919700
C      5.436500    1.884300    1.206400
O      6.209200    2.899300    1.636800
C      4.056500    2.007900    1.038400
C      3.307200    0.941000    0.596600
O     -3.865300   -0.585700   -0.832300
O     -0.624800    1.680900    0.235200
H     -3.188300    0.050900    1.715800
H     -4.373600    1.352600    1.858700
H     -4.911900   -0.304400    1.550400
H     -6.180400    0.513100   -0.467400
H     -5.333900    1.334400   -1.778100
H     -5.610500    2.174000   -0.244000
H     -3.022800    2.574400    0.050000
H     -2.913300    1.865500   -1.566300
H     -3.474100   -2.951500   -1.564100
H     -1.280500   -4.141300   -1.646500
H      3.757700   -2.333000   -0.356500
H      5.787700   -1.339500    0.258600
H      7.120300    0.581400    1.053700
H      5.683200    3.697500    1.805300
H      3.568200    2.946200    1.255800
H      2.242600    1.058600    0.474300
