46

C     -3.886516    3.306178   -1.382997
C     -3.546187    2.539744   -0.141555
O     -3.974669    2.806744    0.973176
O     -2.702130    1.511768   -0.444701
C     -2.193523    0.766445    0.676407
C     -0.761678    0.504610    0.351263
C     -0.197466   -0.669712    0.031100
C     -0.996363   -1.927564   -0.098244
C     -2.520399   -1.627476   -0.177620
C     -2.956700   -0.587337    0.889582
C     -4.479519   -0.392971    0.884331
O     -2.595010   -1.112583    2.188300
O     -3.242785   -2.864500    0.002850
O     -0.643638   -2.629314   -1.295622
C      1.225887   -0.513376   -0.136040
C      1.601297    0.756774    0.027240
C      0.355530    1.444312    0.339874
N      0.247133    2.730045    0.578210
N      0.121835    3.847769    0.773464
C      2.975717    1.232052   -0.083940
O      3.279989    2.409143    0.073615
C      3.997465    0.214221   -0.408858
C      3.631204   -1.131635   -0.569211
C      2.219070   -1.568881   -0.414032
O      1.900156   -2.756294   -0.487993
C      4.607999   -2.091571   -0.865808
C      5.943502   -1.706065   -1.012681
C      6.308286   -0.367490   -0.857135
C      5.340041    0.589205   -0.558237
O      5.784607    1.877851   -0.418670
H     -4.340285    2.640113   -2.122775
H     -4.609285    4.091662   -1.137176
H     -2.985512    3.778143   -1.779774
H     -2.222319    1.353768    1.605219
H     -0.793765   -2.600285    0.744830
H     -2.780830   -1.264978   -1.182845
H     -4.842666   -0.022788   -0.078779
H     -4.780147    0.306450    1.671940
H     -5.004197   -1.331508    1.102374
H     -3.271019   -1.826423    2.404244
H     -2.861850   -3.481281   -0.659439
H      0.239484   -3.028057   -1.115079
H      4.339624   -3.142494   -0.984285
H      6.702098   -2.451038   -1.247018
H      7.349050   -0.066622   -0.969058
H      5.018481    2.455244   -0.185818
