97
 xtb: 6.6.1 (8d0f1dd)
C     -9.594300   -0.979200    2.503100
C    -10.587500   -0.983600    1.376700
C    -10.434700   -1.694100    0.250100
C    -11.499800   -1.752900   -0.840900
C    -12.505200   -0.604400   -0.680700
C    -12.977500   -0.463200    0.757400
C    -11.786600   -0.112300    1.638200
C    -12.228500   -3.103400   -0.775500
C    -10.838300   -1.609300   -2.219000
C     -9.257200   -2.511800   -0.022300
C     -7.984400   -2.099700    0.114800
C     -6.816400   -2.886500   -0.176100
C     -5.548600   -2.404800   -0.047300
C     -5.145000   -1.118200    0.398400
C     -3.841300   -0.740800    0.449000
C     -3.341100    0.523200    0.885400
C     -1.994400    0.753700    0.813000
C     -1.287800    1.922500    1.174500
C      0.058900    2.058000    1.013000
C      0.764200    3.230800    1.366200
C      2.099200    3.493400    1.208500
C      2.628300    4.828200    1.652500
C      3.010300    2.563800    0.630100
C      4.331800    2.785700    0.395800
C      5.172900    1.814700   -0.201500
C      6.491500    1.936600   -0.532700
C      7.292600    3.181300   -0.290800
C      7.147300    0.825000   -1.155500
C      8.424500    0.795000   -1.599000
C      9.000100   -0.354100   -2.227900
C     10.268100   -0.476100   -2.660300
C     10.737000   -1.719000   -3.346900
C     11.308700    0.597300   -2.492900
C     11.793200    0.720600   -1.039700
C     12.418000   -0.584600   -0.515500
C     12.871000   -0.426300    0.923700
C     14.121700   -0.638700    1.301500
C     11.803000   -0.026200    1.897800
O     13.441600   -1.047000   -1.372600
C     -4.323100    1.537400    1.392500
C     -7.013900   -4.298500   -0.647400
H    -10.116800   -1.062400    3.455400
H     -8.884400   -1.796900    2.421100
H     -9.041100   -0.039900    2.516800
H    -12.026400    0.329700   -0.984200
H    -13.354700   -0.774900   -1.345300
H    -13.738300    0.316500    0.829500
H    -13.426300   -1.397200    1.097500
H    -12.067100   -0.182700    2.691800
H    -11.494100    0.927800    1.454600
H    -13.032900   -3.128900   -1.507700
H    -12.650700   -3.269900    0.212000
H    -11.548900   -3.922800   -0.993500
H    -11.601500   -1.562100   -2.993200
H    -10.183000   -2.448500   -2.435400
H    -10.245900   -0.697500   -2.261900
H     -9.457400   -3.498700   -0.414800
H     -7.814600   -1.084900    0.440900
H     -4.734300   -3.071400   -0.309600
H     -5.908600   -0.421000    0.705600
H     -3.095700   -1.456700    0.121400
H     -1.381100   -0.050400    0.420200
H     -1.833100    2.757600    1.592300
H      0.604500    1.227200    0.587100
H      0.156500    4.013500    1.806400
H      1.838200    5.427100    2.097200
H      3.419900    4.698000    2.388800
H      3.039500    5.375100    0.805000
H      2.612400    1.600200    0.342100
H      4.759900    3.739500    0.661400
H      4.694000    0.868500   -0.430400
H      7.627100    3.598300   -1.239800
H      8.172500    2.947500    0.306400
H      6.716600    3.937300    0.230500
H      6.545300   -0.068200   -1.279600
H      9.046000    1.671100   -1.499700
H      8.326900   -1.192200   -2.369100
H      9.997500   -2.513500   -3.286100
H     11.673200   -2.062600   -2.908500
H     10.930700   -1.506200   -4.399000
H     10.908100    1.564400   -2.803600
H     12.161000    0.362300   -3.131200
H     12.537400    1.518800   -0.975900
H     10.951400    0.978100   -0.400400
H     11.654800   -1.373400   -0.543800
H     14.887800   -0.947400    0.611600
H     14.423400   -0.534800    2.329500
H     10.868400   -0.536000    1.673700
H     11.625300    1.047100    1.847800
H     12.106500   -0.270700    2.911800
H     14.121600   -0.361600   -1.428700
H     -5.017300    1.812400    0.599300
H     -4.897800    1.118900    2.217300
H     -3.828600    2.437100    1.740800
H     -7.570100   -4.872500    0.092300
H     -6.057400   -4.786300   -0.815400
H     -7.576300   -4.313700   -1.580400
