25
 xtb: 6.6.1 (8d0f1dd)
C     -3.211300    1.761400    0.175900
O     -2.983900    0.363100    0.180800
C     -1.690200   -0.036900    0.047400
C     -1.309700   -1.386600    0.031700
N      0.058400   -1.403700   -0.115700
C      0.542300   -0.143200   -0.192400
C     -0.534700    0.736500   -0.092500
C      1.937900    0.140800   -0.349000
C      3.019700   -0.719500   -0.448500
C      4.171200    0.068300   -0.588300
C      3.770000    1.380700   -0.571400
N      2.424900    1.414700   -0.427300
C     -2.098900   -2.569500    0.138500
N     -3.362300   -2.671500    0.275000
H     -2.887000    2.204100   -0.769200
H     -2.692000    2.242200    1.008700
H     -4.285600    1.883700    0.291200
H      0.613700   -2.241400   -0.159900
H     -0.483200    1.805500   -0.118400
H      2.990700   -1.790600   -0.424100
H      5.176700   -0.288900   -0.689500
H      4.349900    2.277800   -0.651500
H      1.863300    2.247700   -0.383800
H     -1.552400   -3.509900    0.099200
H     -3.827500   -1.764700    0.307000
