25

C     -3.225495    1.703233    0.178111
O     -3.001402    0.299397    0.181131
C     -1.702533   -0.060350    0.047903
C     -1.326911   -1.390452    0.033136
N      0.043093   -1.403105   -0.114498
C      0.542681   -0.124663   -0.193201
C     -0.535958    0.733093   -0.093396
C      1.938562    0.148845   -0.349175
C      3.015713   -0.713274   -0.448740
C      4.189987    0.067557   -0.590622
C      3.805484    1.387500   -0.574693
N      2.443386    1.426481   -0.428422
C     -2.113564   -2.589471    0.141286
N     -3.397453   -2.582931    0.279743
H     -2.914406    2.151165   -0.771838
H     -2.720783    2.185932    1.021966
H     -4.300806    1.871583    0.290917
H      0.609841   -2.238132   -0.159490
H     -0.485049    1.812100   -0.119803
H      2.977806   -1.793832   -0.423712
H      5.204428   -0.295805   -0.693082
H      4.380012    2.300579   -0.654401
H      1.889206    2.270015   -0.384947
H     -1.594196   -3.561866    0.104072
H     -3.721644   -1.603600    0.295755
