81
 xtb: 6.6.1 (8d0f1dd)
C      2.064300    4.788100    0.571300
C      3.080100    4.405100    1.587100
C      3.593700    3.187300    1.789200
C      4.713500    2.904900    2.764600
C      5.166600    1.508200    2.380500
O      6.105100    0.878500    2.845100
N      4.320200    1.049200    1.435500
C      3.304200    1.942400    1.094400
C      2.234200    1.616900    0.335100
C      2.063200    0.402200   -0.409500
C      2.968400   -0.342900   -1.197600
C      2.248400   -1.384000   -1.780500
C      0.910800   -1.271600   -1.342900
C     -0.198700   -2.074200   -1.634300
C     -1.473000   -1.857500   -1.167800
C     -2.649600   -2.659600   -1.417400
C     -3.677500   -2.051800   -0.744000
C     -3.103300   -0.891400   -0.115000
N     -1.815300   -0.784800   -0.361200
C     -3.824900    0.118700    0.713200
C     -3.762900    1.517600    0.056900
C     -4.306800    2.595900    0.948700
C     -3.309200    3.435800    1.307900
C     -2.054700    2.965000    0.666100
O     -0.910600    3.395700    0.786100
N     -2.400000    1.933900   -0.131100
C     -3.412700    4.587300    2.178000
C     -2.392300    5.354100    2.546600
C     -5.738100    2.613700    1.339800
C     -5.107700   -2.459800   -0.657700
C     -2.674400   -3.905300   -2.237600
C     -2.076300   -5.098600   -1.471100
C     -2.947000   -5.462600   -0.299100
O     -4.134200   -5.701400   -0.367100
O     -2.278500   -5.498800    0.841800
N      0.845600   -0.169500   -0.536700
C      2.775300   -2.447800   -2.681100
C      3.179600   -3.694100   -1.863300
C      3.562100   -4.791500   -2.816200
O      2.787500   -5.604000   -3.277100
O      4.842400   -4.757300   -3.143500
C      4.398400   -0.013500   -1.467800
C      4.247600    2.913900    4.225000
H      1.063400    4.490600    0.883900
H      2.265500    4.294200   -0.377500
H      2.064600    5.864200    0.423100
H      3.457400    5.207400    2.207100
H      5.544100    3.606700    2.654500
H      4.352100    0.106700    1.076800
H      1.392100    2.291500    0.325700
H     -0.032400   -2.928700   -2.273500
H     -4.866400   -0.170700    0.838700
H     -3.350400    0.187600    1.695400
H     -4.287400    1.480300   -0.905400
H     -1.740500    1.271700   -0.522400
H     -4.409800    4.806500    2.537900
H     -2.529700    6.200300    3.197000
H     -1.390700    5.152400    2.209300
H     -6.061700    3.617800    1.597000
H     -5.893000    1.974300    2.209100
H     -6.355600    2.235200    0.529000
H     -5.717300   -1.875000   -1.347800
H     -5.491100   -2.306700    0.349700
H     -5.221900   -3.513100   -0.904700
H     -2.100500   -3.757000   -3.153900
H     -3.702700   -4.148200   -2.511000
H     -2.032300   -5.964000   -2.134900
H     -1.076200   -4.871700   -1.104100
H     -2.838800   -5.740300    1.605200
H     -0.022200    0.089000   -0.079600
H      2.011300   -2.735400   -3.405900
H      3.648500   -2.084600   -3.223800
H      4.028900   -3.455800   -1.225600
H      2.334600   -4.024300   -1.260000
H      5.091700   -5.443400   -3.792300
H      5.076000   -0.673800   -0.926000
H      4.609600   -0.134000   -2.528800
H      4.613200    1.014800   -1.190800
H      3.393300    2.252600    4.351000
H      5.053900    2.571700    4.869500
H      3.956600    3.918600    4.517000
