41

C     -2.728354    4.434732   -0.385504
O     -1.712095    3.443412   -0.303647
C     -2.180355    2.180480   -0.175098
C     -1.322398    1.106652   -0.082552
N     -2.104107   -0.019216    0.039183
C     -3.437756    0.307570    0.017761
C     -3.506710    1.684042   -0.108096
C     -4.500166   -0.645936    0.123178
C     -5.848337   -0.429785    0.343951
C     -6.498335   -1.687865    0.364004
C     -5.535487   -2.645413    0.148101
N     -4.331168   -2.006161    0.000700
C      0.110538    1.071115   -0.096318
N      0.711582   -0.067529    0.000288
C      2.175519    0.069945   -0.029113
C      2.800133   -1.321542    0.091117
C      4.307180   -1.263995    0.068502
C      5.030205   -1.113097    1.259297
C      6.423754   -1.039476    1.235510
C      7.106212   -1.111835    0.022536
C      6.396102   -1.256740   -1.167859
C      5.002522   -1.330559   -1.146246
H     -3.333518    4.457091    0.527303
H     -2.239601    5.408563   -0.486431
H     -3.358291    4.283376   -1.268799
H     -1.709187   -0.943187    0.145506
H     -4.423937    2.254842   -0.152069
H     -6.319154    0.534561    0.482890
H     -7.553791   -1.871736    0.516981
H     -5.601580   -3.723104    0.082919
H     -3.455608   -2.472256   -0.188690
H      0.654630    2.028871   -0.190732
H      2.513122    0.702937    0.801718
H      2.492712    0.540861   -0.968555
H      2.443925   -1.966084   -0.723039
H      2.463835   -1.806809    1.016637
H      4.510759   -1.052939    2.213144
H      6.976893   -0.925401    2.164034
H      8.191274   -1.054938    0.004927
H      6.927708   -1.312135   -2.114141
H      4.461332   -1.441313   -2.083299
