41
 xtb: 6.6.1 (8d0f1dd)
C     -1.254500   -3.682600    0.210100
O     -0.552500   -2.596800   -0.368000
C     -1.142900   -1.375500   -0.254900
C     -0.562700   -0.208000   -0.764000
N     -1.415900    0.823400   -0.465700
C     -2.498500    0.360600    0.197700
C     -2.353100   -1.019500    0.347200
C     -3.564600    1.214900    0.630400
C     -3.728400    2.582600    0.481400
C     -4.947900    2.927400    1.082200
C     -5.496500    1.772400    1.580400
N     -4.656900    0.747000    1.304200
C      0.675000   -0.048100   -1.436900
N      1.110100    1.091500   -1.812700
C      2.419200    1.159400   -2.390700
C      3.469100    1.463100   -1.296700
C      3.532400    0.318200   -0.331600
C      2.709900    0.291300    0.788300
C      2.695900   -0.808500    1.627900
C      3.508700   -1.896400    1.361200
C      4.339700   -1.876200    0.253300
C      4.347100   -0.778600   -0.588300
H     -2.231600   -3.811000   -0.263000
H     -1.381400   -3.535900    1.285800
H     -0.638300   -4.559800    0.027700
H     -1.228200    1.776600   -0.725600
H     -3.043100   -1.679000    0.832500
H     -3.051400    3.256900   -0.003800
H     -5.372000    3.910200    1.140600
H     -6.417400    1.619100    2.105900
H     -4.808900   -0.215500    1.552200
H      1.226400   -0.984200   -1.612000
H      2.698700    0.218100   -2.893100
H      2.419800    1.972300   -3.121600
H      3.177100    2.379100   -0.783100
H      4.434700    1.613500   -1.780900
H      2.072600    1.138000    0.997400
H      2.045000   -0.816800    2.489600
H      3.496600   -2.756900    2.013300
H      4.979000   -2.720600    0.041100
H      4.989600   -0.771300   -1.457900
