22
 xtb: 6.6.1 (8d0f1dd)
C      3.417500   -0.318300    0.784500
C      1.992500    0.038500    0.560500
C      1.523500    1.294800    0.647900
C      0.129600    1.657300    0.431800
O     -0.237700    2.838300    0.529000
C     -0.795100    0.579600    0.102500
C     -2.159400    0.851900   -0.119900
O     -2.672100    2.077500   -0.044800
C     -3.032100   -0.203800   -0.435500
C     -2.567000   -1.493900   -0.528400
C     -1.220500   -1.770900   -0.310100
C     -0.337500   -0.749100    0.002400
C      1.080700   -1.083200    0.226200
O      1.496400   -2.231600    0.141300
H      3.812800   -0.807100   -0.105000
H      4.013000    0.556900    1.021200
H      3.486300   -1.044100    1.593800
H      2.181200    2.118100    0.890500
H     -1.957400    2.723400    0.184400
H     -4.069800    0.038500   -0.599500
H     -3.246600   -2.294900   -0.770900
H     -0.838500   -2.777800   -0.378600
