24

C     -0.844886    0.401443   -1.102290
C      0.522988    1.116230   -1.102550
N      1.578153    0.130659   -0.856530
C      1.396580   -0.950971   -0.003989
C      0.179048   -1.278111    0.470160
C     -1.030044   -0.549753    0.074929
C     -2.179743   -0.774019    0.736356
C     -3.482966   -0.149063    0.426092
O     -4.471455   -0.375802    1.113847
C      2.619000   -1.712951    0.413447
O      3.755419   -1.440778    0.058760
O      2.375716   -2.752286    1.229906
C      0.589893    2.258643   -0.079571
O      1.535939    2.546503    0.638810
O     -0.508990    3.044103   -0.070599
H     -0.916413   -0.201660   -2.018573
H     -1.647544    1.141495   -1.158722
H      0.696184    1.570830   -2.084981
H      2.550062    0.416621   -0.983091
H      0.066385   -2.098031    1.176245
H     -2.227322   -1.467554    1.572020
H     -3.528327    0.517376   -0.446747
H      3.268090   -3.120814    1.395717
H     -0.295768    3.727891    0.601353
