35
 xtb: 6.6.1 (8d0f1dd)
O     -4.563300   -2.287700   -1.022000
C     -3.573700   -1.551900   -1.085000
C     -2.883600   -1.068300    0.122700
C     -1.707700   -0.290800    0.058300
C     -1.187500    0.245300    1.239000
C     -1.771700   -0.036900    2.458200
C     -2.892200   -0.854800    2.528300
C     -3.449100   -1.350700    1.366600
C     -3.057400   -1.092500   -2.366000
C     -1.919700   -0.373400   -2.393300
O     -1.313800    0.091100   -3.534600
C     -0.156300    0.707900   -3.165000
O      0.577100    1.217900   -3.977900
C     -1.141400   -0.024200   -1.237100
C      0.002700    0.595400   -1.696800
C      1.218500    1.005300   -1.085700
C      2.026000    2.041200   -1.546200
N      3.116500    2.157500   -0.772700
C      3.102600    1.180900    0.192900
C      4.040200    0.882000    1.170300
C      3.787500   -0.206100    1.982800
C      2.644800   -0.986900    1.808800
C      1.708100   -0.692400    0.837900
C      1.917800    0.425500    0.033800
H     -0.333900    0.899700    1.188600
H     -1.354300    0.383400    3.359500
H     -3.339400   -1.085500    3.482100
H     -4.342800   -1.957100    1.385500
H     -3.591500   -1.362700   -3.262200
H      1.831400    2.702800   -2.367300
H      3.841800    2.849100   -0.888300
H      4.938500    1.467600    1.281700
H      4.492900   -0.469200    2.755300
H      2.492300   -1.843800    2.446400
H      0.840600   -1.317900    0.701600
