99

C     -7.152382    4.955840   -2.494007
O     -7.771231    4.238668   -1.432172
C     -6.990002    3.367800   -0.716817
C     -5.616552    3.168612   -0.890085
C     -4.899072    2.246256   -0.094207
C     -5.603611    1.549894    0.904219
C     -6.978673    1.731810    1.070285
C     -7.662383    2.645638    0.272389
O     -9.006165    2.834558    0.457993
O     -7.650236    1.082414    2.070116
C     -7.675361   -0.330672    1.869732
C     -3.452204    2.073954   -0.307609
O     -2.805307    3.265567   -0.759286
C     -1.390832    3.287111   -0.691414
C     -0.748187    4.498814   -0.915988
C      0.640223    4.553564   -0.890358
C      1.394915    3.411449   -0.654631
C      0.735560    2.202091   -0.435305
C     -0.660674    2.125892   -0.432918
C     -1.316239    0.922707   -0.174432
C     -2.712580    0.882833   -0.148468
O     -3.306865   -0.335230    0.114384
C     -4.055095   -0.858781   -1.009464
C     -3.146968   -1.710206   -1.915135
C     -4.003052   -2.727808   -2.649610
C     -4.666625   -3.683373   -1.647913
C     -5.099469   -2.959037   -0.346461
C     -4.199388   -3.292689    0.854071
O     -4.252660   -4.682741    1.145415
O     -5.215459   -1.541062   -0.525996
O     -5.806989   -4.232043   -2.328114
O     -3.160660   -3.452745   -3.556877
O     -2.457335   -0.857056   -2.846736
C     -0.463935   -0.242333    0.099955
C      0.873852   -0.114972    0.042336
C      1.761557   -1.234273    0.285344
C      3.063435   -1.254016   -0.039525
C      3.997683   -2.374289    0.198081
C      3.659164   -3.726653    0.026122
C      4.611817   -4.731731    0.204490
C      5.923962   -4.398935    0.533577
C      6.300679   -3.069985    0.722736
C      5.329321   -2.071510    0.552695
O      5.686986   -0.749597    0.650336
C      6.579570   -0.419383    1.729026
C      7.216958    0.934828    1.432275
C      7.297764    1.446924    0.126263
C      7.893951    2.682128   -0.097084
C      8.434287    3.417224    0.955194
C      8.372476    2.929040    2.252222
C      7.761572    1.692271    2.488438
O      9.017648    4.616605    0.655746
O      7.948030    3.171679   -1.373060
C      7.657322   -1.483470    2.051867
C      7.700362   -2.626619    1.043528
O      7.422704   -2.029438    3.366482
O      6.784783   -5.450988    0.646659
O      2.389230   -4.083302   -0.346362
O      1.515006    1.090356   -0.222037
O      1.225058    5.763152   -1.098897
H     -6.755018    4.269324   -3.250552
H     -6.371256    5.618704   -2.112686
H     -7.915344    5.577907   -2.975178
H     -5.073161    3.732226   -1.645605
H     -5.095963    0.867243    1.582152
H     -9.273013    3.531193   -0.171848
H     -7.832773   -0.597063    0.815898
H     -6.747277   -0.780784    2.241002
H     -8.504435   -0.744500    2.452403
H     -1.337113    5.388927   -1.110852
H      2.482981    3.439276   -0.644359
H     -4.452025   -0.028515   -1.608600
H     -2.365117   -2.217566   -1.338206
H     -4.746645   -2.217394   -3.274813
H     -4.008284   -4.535683   -1.436720
H     -6.109104   -3.306324   -0.091158
H     -4.510229   -2.723573    1.738393
H     -3.153632   -3.032542    0.655400
H     -5.003302   -4.832008    1.749317
H     -6.129620   -4.984693   -1.799129
H     -3.740699   -4.109243   -3.993901
H     -2.117132   -1.474984   -3.534104
H     -0.921241   -1.198167    0.334605
H      1.320058   -2.115732    0.743044
H      3.522400   -0.386634   -0.509755
H      4.358758   -5.779586    0.066744
H      5.938080   -0.267101    2.609405
H      6.900685    0.896184   -0.724382
H      8.787068    3.484875    3.085843
H      7.722823    1.312080    3.508233
H      9.427665    4.969098    1.465002
H      8.436209    4.014793   -1.294414
H      8.656364   -1.038874    2.116697
H      8.185293   -2.303989    0.113318
H      8.290421   -3.444679    1.472073
H      6.599788   -2.550176    3.332673
H      7.707598   -5.143211    0.635455
H      2.359669   -5.047450   -0.472783
H      2.196842    5.693900   -1.024981
