60
 xtb: 6.6.1 (8d0f1dd)
C      4.384200    3.330400    0.503800
O      4.410300    1.934700    0.763200
C      3.150400    1.309700    0.755600
C      2.553500    1.152700   -0.664100
O      1.357500    0.376400   -0.632000
C      1.477900   -0.889300   -0.029400
C      1.970500   -0.791500    1.427800
C      3.324300   -0.063100    1.425000
O      3.720200    0.066400    2.763800
O      1.031300   -0.100100    2.204300
N      0.216400   -1.576700   -0.154400
C      0.090800   -2.909200   -0.508000
C     -1.277100   -3.190700   -0.776500
C     -1.707100   -4.452600   -1.168800
C     -0.774700   -5.460000   -1.289500
C      0.561400   -5.215400   -0.999000
C      0.997400   -3.962600   -0.603500
Br     2.876700   -3.864100   -0.167500
C     -1.997100   -1.975200   -0.547800
C     -3.347500   -1.629000   -0.646600
C     -3.770000   -0.331200   -0.344000
C     -2.855700    0.626700    0.084900
C     -2.965700    1.992800    0.504200
C     -1.652600    2.390000    0.860500
C     -1.416300    3.679700    1.309900
C     -2.464700    4.568300    1.418100
C     -3.756000    4.169000    1.072600
C     -4.021000    2.893800    0.614400
Br     0.365000    4.201300    1.756400
N     -0.791600    1.354100    0.664800
C     -1.476000    0.276100    0.198400
C     -1.042300   -1.005200   -0.143800
C     -5.226700   -0.260900   -0.547200
O     -5.998800    0.663900   -0.407800
N     -5.598300   -1.526400   -0.958300
C     -4.534400   -2.406900   -1.039300
O     -4.648800   -3.567500   -1.374400
C      3.580900    0.640700   -1.687600
O      3.238900    1.002000   -3.001600
H      5.390500    3.683900    0.711400
H      4.129800    3.537600   -0.537700
H      3.667200    3.832800    1.159900
H      2.446300    1.900700    1.365200
H      2.205300    2.130700   -1.015900
H      2.222000   -1.475000   -0.582700
H      2.114300   -1.807800    1.821300
H      4.059600   -0.652200    0.859300
H      4.528200    0.599200    2.801000
H      1.404500    0.006900    3.093900
H     -2.752100   -4.624200   -1.366000
H     -1.073700   -6.448900   -1.593900
H      1.279500   -6.017000   -1.070700
H     -2.285400    5.573000    1.767800
H     -4.558200    4.882600    1.166400
H     -5.019400    2.591300    0.343800
H      0.180600    1.322400    0.933700
H     -6.550400   -1.786000   -1.176500
H      3.709300   -0.445800   -1.607000
H      4.543500    1.112400   -1.482600
H      2.373000    0.632400   -3.223900
