65

C    -10.112766    3.469067   -0.860468
O     -8.755981    3.443464   -0.432342
C     -8.090280    2.246200   -0.504630
C     -6.785127    2.227207    0.021713
C     -6.007530    1.054526   -0.020671
C     -6.543474   -0.110480   -0.587137
C     -7.845792   -0.087852   -1.103733
C     -8.611818    1.078753   -1.067158
O     -8.451223   -1.182923   -1.662901
C     -5.748210   -1.360298   -0.634079
O     -6.206066   -2.385966   -1.121397
C     -4.404451   -1.315580   -0.073061
C     -3.882581   -0.223197    0.459476
C     -4.636762    1.044285    0.546918
O     -4.173006    2.046583    1.076449
O     -2.598090   -0.357285    0.963400
C     -2.209266   -1.719659    0.626676
C     -3.443255   -2.429743    0.011235
C     -1.751746   -2.431983    1.904346
C     -0.553849   -1.695897    2.486692
C      0.456878   -1.418722    1.409638
C      0.095013   -1.441847    0.057070
O     -1.176545   -1.725410   -0.368644
C      1.060605   -1.198172   -0.932080
C      2.383867   -0.898833   -0.568472
C      2.739861   -0.846516    0.780981
C      1.777476   -1.106530    1.764747
C      4.103765   -0.510245    1.156150
C      5.006684   -0.300663    0.188606
O      4.689753   -0.393906   -1.185491
C      3.417473   -0.645157   -1.602507
O      3.120505   -0.668342   -2.792582
C      6.412576    0.072958    0.561572
O      6.752912    0.250116    1.730210
N      7.239706    0.203388   -0.526962
C      8.555532    0.570228   -0.546722
C      9.438184    0.906784    0.398812
C     10.795929    1.270251   -0.110362
C     10.714691    1.086083   -1.622080
C      9.286011    0.683171   -1.828063
O      8.751274    0.454030   -2.902603
O      9.239074    0.968787    1.749769
O      0.653525   -1.264339   -2.244916
O     -6.313282    3.388408    0.583096
H    -10.490325    4.483034   -0.703734
H    -10.729584    2.786034   -0.265135
H    -10.196172    3.248762   -1.930938
H     -9.606169    1.046276   -1.498142
H     -7.810656   -1.932165   -1.670205
H     -3.226207   -2.854518   -0.974190
H     -3.831019   -3.225739    0.657860
H     -2.548396   -2.453697    2.657399
H     -1.466980   -3.467374    1.672886
H     -0.107342   -2.301507    3.286579
H     -0.874183   -0.742220    2.928773
H      2.052976   -1.074134    2.817763
H      4.359860   -0.429744    2.208195
H      6.839772    0.026993   -1.448293
H     11.043456    2.305612    0.141988
H     11.565824    0.624929    0.316658
H     11.378470    0.286820   -1.963348
H     10.930249    2.016428   -2.154907
H      8.309864    0.708753    1.944103
H      1.411051   -1.046305   -2.833357
H     -5.394684    3.249018    0.903566
