43
 xtb: 6.6.1 (8d0f1dd)
C     -5.933100    1.814600    0.974500
O     -4.962000    0.801800    1.185400
C     -3.805100    0.850300    0.485900
C     -2.860100   -0.158000    0.780300
C     -1.610600   -0.137700    0.161000
C     -1.289000    0.898500   -0.756900
C     -2.296800    1.814100   -1.123100
C     -3.527800    1.801000   -0.478700
O     -2.113700    2.752400   -2.061600
C      0.045900    1.072100   -1.336700
O      0.190300    1.687100   -2.413600
C      1.209300    0.612900   -0.594100
C      2.415200    0.534000   -1.186700
C      3.658200    0.128000   -0.579200
C      3.739200   -0.319000    0.744800
C      4.947600   -0.693600    1.296500
C      6.120000   -0.626000    0.521500
C      6.046300   -0.186700   -0.791200
C      4.831900    0.181400   -1.335800
O      7.278800   -1.008700    1.124400
O      4.996000   -1.126800    2.583200
O     -0.634600   -1.058700    0.339600
C     -0.854300   -2.301700    0.990000
O     -3.151100   -1.114000    1.741900
C     -4.254400   -1.972300    1.471000
H     -5.517100    2.802900    1.178000
H     -6.323200    1.776400   -0.044700
H     -6.727800    1.595000    1.683400
H     -4.241500    2.554100   -0.763700
H     -1.225100    2.603100   -2.479300
H      1.066400    0.366200    0.442600
H      2.465300    0.799300   -2.236800
H      2.860500   -0.388300    1.363700
H      6.943800   -0.134800   -1.389100
H      4.788100    0.522600   -2.358300
H      8.027200   -0.929600    0.515000
H      5.916000   -1.343700    2.809000
H     -1.651500   -2.866800    0.504900
H     -1.085400   -2.167000    2.046500
H      0.089900   -2.831700    0.875600
H     -5.198600   -1.428600    1.505200
H     -4.143600   -2.451800    0.494100
H     -4.229500   -2.722400    2.257700
