45

C      3.165229    3.450823    1.821059
O      3.699457    2.349915    1.091543
C      2.810432    1.412905    0.604392
C      1.418667    1.505084    0.793654
C      0.580918    0.507771    0.263037
C      1.159112   -0.546946   -0.436814
O      0.188459   -1.410329   -0.872862
C     -0.997426   -0.905566   -0.451777
C     -2.248917   -1.547259   -0.726125
C     -3.440215   -0.834636   -0.176565
C     -4.724535   -1.353465   -0.378356
O     -4.974247   -2.507783   -1.070664
C     -5.843121   -0.694197    0.131388
C     -5.700910    0.491651    0.862196
C     -6.911909    1.212906    1.378774
C     -4.420427    1.025572    1.055985
C     -3.289425    0.368588    0.546601
O     -2.401753   -2.592084   -1.352169
C     -0.816969    0.263425    0.246135
C     -1.943189    0.980766    0.791555
O     -1.823297    2.025478    1.417879
C      2.544434   -0.677666   -0.647439
C      3.394288    0.324276   -0.117061
C      4.779046    0.140662   -0.366522
O      5.727927    1.028683    0.076115
C      5.277075   -0.953486   -1.081947
C      4.412927   -1.931653   -1.579048
C      4.945328   -3.085554   -2.374469
C      3.039904   -1.784312   -1.370519
H      4.003781    4.082876    2.128862
H      2.654300    3.112101    2.728169
H      2.505548    4.057468    1.192242
H      0.957737    2.322570    1.337212
H     -4.123234   -2.890994   -1.382298
H     -6.831545   -1.115611   -0.045947
H     -6.677499    1.760240    2.297827
H     -7.714688    0.507277    1.617123
H     -7.274053    1.920965    0.627129
H     -4.303939    1.958436    1.608137
H      5.248805    1.733054    0.554384
H      6.349676   -1.031967   -1.244948
H      4.314499   -3.971628   -2.247311
H      4.978749   -2.824251   -3.436603
H      5.953967   -3.355684   -2.044448
H      2.351033   -2.528419   -1.767505
