29
 xtb: 6.6.1 (8d0f1dd)
C     -4.808300    0.214100    0.858700
C     -3.767400    0.534200    1.715500
C     -2.457500    0.372700    1.306700
C     -2.171600   -0.120400    0.032100
C     -3.225500   -0.432100   -0.827500
C     -4.533100   -0.264400   -0.413100
C     -0.775000   -0.297200   -0.376600
C     -0.362000   -1.164300   -1.337700
C      1.028000   -1.303200   -1.678600
O      1.430900   -2.094900   -2.559100
C      1.927800   -0.458300   -0.919900
C      3.326600   -0.479000   -1.134600
C      4.149700    0.346700   -0.386700
C      3.614000    1.199700    0.577500
C      2.240800    1.229700    0.802800
C      1.411800    0.406900    0.059100
O      0.083300    0.473200    0.313600
O      4.385000    2.014000    1.316200
O      3.872900   -1.285600   -2.052900
H     -5.830800    0.340200    1.178600
H     -3.976600    0.910000    2.705000
H     -1.644700    0.614800    1.973300
H     -3.020600   -0.784100   -1.825800
H     -5.341200   -0.505100   -1.086100
H     -1.064200   -1.791100   -1.859400
H      5.211000    0.309400   -0.573900
H      1.830900    1.889800    1.547100
H      5.323400    1.924100    1.083300
H      3.142400   -1.799700   -2.487500
