32

C     -3.566776   -3.084263    0.330088
C     -2.844518   -1.799271    0.262135
C     -3.242060   -0.482662    0.231655
C     -2.055781    0.304550    0.164430
C     -1.782401    1.690313    0.108544
C     -0.424675    2.072396    0.049009
C      0.619557    1.129061    0.044716
C      2.020223    1.574831   -0.018433
O      2.298675    2.768979   -0.068066
C      3.090692    0.567140   -0.021472
C      2.849261   -0.749744    0.031003
C      1.431528   -1.239569    0.096218
O      1.191784   -2.439968    0.144730
C      0.350379   -0.238609    0.099850
C     -0.998019   -0.604907    0.158535
O     -1.489490   -1.876112    0.218084
O      3.813357   -1.739826    0.031033
C      5.181956   -1.362143   -0.028734
O     -0.178565    3.425412   -0.004839
C     -2.858646    2.742784    0.110278
H     -3.277182   -3.639298    1.227599
H     -3.338178   -3.698804   -0.546002
H     -4.649008   -2.925061    0.361965
H     -4.263787   -0.130466    0.255001
H      4.089397    0.982472   -0.069769
H      5.784657   -2.275110   -0.018854
H      5.399313   -0.824542   -0.957295
H      5.461325   -0.764104    0.844644
H      0.792795    3.577289   -0.043360
H     -2.804981    3.340270   -0.805551
H     -2.743602    3.400098    0.978216
H     -3.857231    2.298865    0.159527
