32
 xtb: 6.6.1 (8d0f1dd)
C     -3.573200   -3.055300    0.329800
C     -2.807700   -1.790800    0.260600
C     -3.210500   -0.495900    0.231400
C     -2.024900    0.299200    0.163300
C     -1.770100    1.660900    0.109100
C     -0.419000    2.069600    0.048900
C      0.640100    1.134900    0.043600
C      2.021800    1.600400   -0.019800
O      2.312000    2.810900   -0.071300
C      3.070900    0.609200   -0.021700
C      2.829700   -0.720500    0.030700
C      1.433900   -1.252100    0.094800
O      1.227600   -2.458500    0.140400
C      0.377000   -0.252600    0.098600
C     -0.958900   -0.638700    0.157400
O     -1.441300   -1.888000    0.216100
O      3.739800   -1.692000    0.032700
C      5.118600   -1.352900   -0.025800
O     -0.202000    3.386500   -0.002400
C     -2.840000    2.696100    0.111300
H     -3.281800   -3.615800    1.216200
H     -3.346200   -3.672600   -0.537300
H     -4.636200   -2.844300    0.362000
H     -4.220700   -0.146900    0.255200
H      4.072900    1.008000   -0.068900
H      5.646400   -2.302900   -0.012700
H      5.343200   -0.810500   -0.946100
H      5.404400   -0.751600    0.839300
H      0.775100    3.552700   -0.042900
H     -2.759200    3.306000   -0.786800
H     -2.699000    3.364500    0.959100
H     -3.822900    2.242900    0.160300
